*SPEF "ieee 1481-1999"
*DESIGN "twos_complement"
*DATE "23:20:57 Saturday April 26, 2025"
*VENDOR "The OpenROAD Project"
*PROGRAM "OpenROAD"
*VERSION "b16bda7e82721d10566ff7e2b68f1ff0be9f9e38"
*DESIGN_FLOW "NAME_SCOPE LOCAL" "PIN_CAP NONE"
*DIVIDER /
*DELIMITER :
*BUS_DELIMITER []
*T_UNIT 1 NS
*C_UNIT 1 PF
*R_UNIT 1 OHM
*L_UNIT 1 HENRY

*NAME_MAP
*3 in[0]
*4 in[1]
*5 in[2]
*6 in[3]
*7 in[4]
*8 in[5]
*9 in[6]
*10 in[7]
*11 out[0]
*12 out[1]
*13 out[2]
*14 out[3]
*15 out[4]
*16 out[5]
*17 out[6]
*18 out[7]
*19 _00_
*20 _01_
*21 _02_
*22 _03_
*23 _04_
*24 _05_
*25 _06_
*26 _07_
*27 _08_
*28 _09_
*29 net1
*30 net10
*31 net11
*32 net12
*33 net13
*34 net14
*35 net15
*36 net16
*37 net2
*38 net3
*39 net4
*40 net5
*41 net6
*42 net7
*43 net8
*44 net9
*45 FILLER_0_0_21
*46 FILLER_0_0_27
*47 FILLER_0_0_29
*48 FILLER_0_0_37
*49 FILLER_0_0_9
*50 FILLER_0_10_18
*51 FILLER_0_10_26
*52 FILLER_0_10_29
*53 FILLER_0_10_6
*54 FILLER_0_11_14
*55 FILLER_0_11_26
*56 FILLER_0_11_3
*57 FILLER_0_11_34
*58 FILLER_0_11_45
*59 FILLER_0_12_21
*60 FILLER_0_12_27
*61 FILLER_0_12_29
*62 FILLER_0_12_37
*63 FILLER_0_12_9
*64 FILLER_0_1_15
*65 FILLER_0_1_27
*66 FILLER_0_1_3
*67 FILLER_0_1_39
*68 FILLER_0_1_47
*69 FILLER_0_2_19
*70 FILLER_0_2_27
*71 FILLER_0_2_3
*72 FILLER_0_2_36
*73 FILLER_0_3_21
*74 FILLER_0_3_33
*75 FILLER_0_3_6
*76 FILLER_0_4_11
*77 FILLER_0_4_18
*78 FILLER_0_4_26
*79 FILLER_0_4_29
*80 FILLER_0_4_3
*81 FILLER_0_4_46
*82 FILLER_0_5_12
*83 FILLER_0_5_20
*84 FILLER_0_5_29
*85 FILLER_0_5_42
*86 FILLER_0_6_15
*87 FILLER_0_6_27
*88 FILLER_0_6_29
*89 FILLER_0_6_3
*90 FILLER_0_6_41
*91 FILLER_0_6_47
*92 FILLER_0_7_15
*93 FILLER_0_7_27
*94 FILLER_0_7_3
*95 FILLER_0_7_39
*96 FILLER_0_7_45
*97 FILLER_0_8_18
*98 FILLER_0_8_26
*99 FILLER_0_8_35
*100 FILLER_0_8_43
*101 FILLER_0_8_6
*102 FILLER_0_9_15
*103 FILLER_0_9_19
*104 FILLER_0_9_3
*105 FILLER_0_9_31
*106 FILLER_0_9_42
*107 PHY_EDGE_ROW_0_Left_13
*108 PHY_EDGE_ROW_0_Right_0
*109 PHY_EDGE_ROW_10_Left_23
*110 PHY_EDGE_ROW_10_Right_10
*111 PHY_EDGE_ROW_11_Left_24
*112 PHY_EDGE_ROW_11_Right_11
*113 PHY_EDGE_ROW_12_Left_25
*114 PHY_EDGE_ROW_12_Right_12
*115 PHY_EDGE_ROW_1_Left_14
*116 PHY_EDGE_ROW_1_Right_1
*117 PHY_EDGE_ROW_2_Left_15
*118 PHY_EDGE_ROW_2_Right_2
*119 PHY_EDGE_ROW_3_Left_16
*120 PHY_EDGE_ROW_3_Right_3
*121 PHY_EDGE_ROW_4_Left_17
*122 PHY_EDGE_ROW_4_Right_4
*123 PHY_EDGE_ROW_5_Left_18
*124 PHY_EDGE_ROW_5_Right_5
*125 PHY_EDGE_ROW_6_Left_19
*126 PHY_EDGE_ROW_6_Right_6
*127 PHY_EDGE_ROW_7_Left_20
*128 PHY_EDGE_ROW_7_Right_7
*129 PHY_EDGE_ROW_8_Left_21
*130 PHY_EDGE_ROW_8_Right_8
*131 PHY_EDGE_ROW_9_Left_22
*132 PHY_EDGE_ROW_9_Right_9
*133 TAP_TAPCELL_ROW_0_26
*134 TAP_TAPCELL_ROW_10_31
*135 TAP_TAPCELL_ROW_12_32
*136 TAP_TAPCELL_ROW_2_27
*137 TAP_TAPCELL_ROW_4_28
*138 TAP_TAPCELL_ROW_6_29
*139 TAP_TAPCELL_ROW_8_30
*140 _10_
*141 _11_
*142 _12_
*143 _13_
*144 _14_
*145 _15_
*146 _16_
*147 _17_
*148 _18_
*149 _19_
*150 _20_
*151 _21_
*152 _22_
*153 _23_
*154 _24_
*155 _25_
*156 _26_
*157 _27_
*158 input1
*159 input2
*160 input3
*161 input4
*162 input5
*163 input6
*164 input7
*165 input8
*166 output10
*167 output11
*168 output12
*169 output13
*170 output14
*171 output15
*172 output16
*173 output9

*PORTS
in[0] I
in[1] I
in[2] I
in[3] I
in[4] I
in[5] I
in[6] I
in[7] I
out[0] O
out[1] O
out[2] O
out[3] O
out[4] O
out[5] O
out[6] O
out[7] O

*D_NET *3 0.00108348
*CONN
*P in[0] I
*I *158:A I *D sky130_fd_sc_hd__buf_1
*CAP
1 in[0] 0.000541738
2 *158:A 0.000541738
3 *158:A *159:A 0
*RES
1 in[0] *158:A 24.4979 
*END

*D_NET *4 0.000806817
*CONN
*P in[1] I
*I *159:A I *D sky130_fd_sc_hd__buf_1
*CAP
1 in[1] 0.000392038
2 *159:A 0.000392038
3 *159:A *160:A 0
4 *159:A *29:10 2.27416e-05
5 *158:A *159:A 0
*RES
1 in[1] *159:A 22.141 
*END

*D_NET *5 0.000572832
*CONN
*P in[2] I
*I *160:A I *D sky130_fd_sc_hd__buf_1
*CAP
1 in[2] 0.000286416
2 *160:A 0.000286416
3 *160:A *161:A 0
4 *159:A *160:A 0
*RES
1 in[2] *160:A 20.4803 
*END

*D_NET *6 0.00068561
*CONN
*P in[3] I
*I *161:A I *D sky130_fd_sc_hd__buf_1
*CAP
1 in[3] 0.000342805
2 *161:A 0.000342805
3 *161:A *148:A 0
4 *161:A *162:A 0
5 *160:A *161:A 0
*RES
1 in[3] *161:A 21.6946 
*END

*D_NET *7 0.000897009
*CONN
*P in[4] I
*I *162:A I *D sky130_fd_sc_hd__buf_1
*CAP
1 in[4] 0.000430098
2 *162:A 0.000430098
3 *162:A *144:B 3.6813e-05
4 *162:A *149:B 0
5 *162:A *163:A 0
6 *161:A *162:A 0
*RES
1 in[4] *162:A 23.3161 
*END

*D_NET *8 0.000715317
*CONN
*P in[5] I
*I *163:A I *D sky130_fd_sc_hd__buf_1
*CAP
1 in[5] 0.000357659
2 *163:A 0.000357659
3 *163:A *149:B 0
4 *163:A *164:A 0
5 *162:A *163:A 0
*RES
1 in[5] *163:A 21.9981 
*END

*D_NET *9 0.000563768
*CONN
*P in[6] I
*I *164:A I *D sky130_fd_sc_hd__clkbuf_1
*CAP
1 in[6] 0.000281884
2 *164:A 0.000281884
3 *164:A *165:A 0
4 *163:A *164:A 0
*RES
1 in[6] *164:A 20.4803 
*END

*D_NET *10 0.00123174
*CONN
*P in[7] I
*I *165:A I *D sky130_fd_sc_hd__buf_1
*CAP
1 in[7] 0.000615872
2 *165:A 0.000615872
3 *164:A *165:A 0
*RES
1 in[7] *165:A 25.0176 
*END

*D_NET *11 0.00116601
*CONN
*P out[0] O
*I *173:X O *D sky130_fd_sc_hd__buf_2
*CAP
1 out[0] 0.000583005
2 *173:X 0.000583005
3 out[0] out[1] 0
*RES
1 *173:X out[0] 23.8754 
*END

*D_NET *12 0.000439194
*CONN
*P out[1] O
*I *166:X O *D sky130_fd_sc_hd__buf_2
*CAP
1 out[1] 0.000219597
2 *166:X 0.000219597
3 out[1] out[2] 0
4 out[1] *29:10 0
5 out[0] out[1] 0
*RES
1 *166:X out[1] 18.1229 
*END

*D_NET *13 0.000438086
*CONN
*P out[2] O
*I *167:X O *D sky130_fd_sc_hd__buf_2
*CAP
1 out[2] 0.000214789
2 *167:X 0.000214789
3 out[2] out[3] 0
4 out[2] *156:B 8.50795e-06
5 out[1] out[2] 0
*RES
1 *167:X out[2] 18.1229 
*END

*D_NET *14 0.000602853
*CONN
*P out[3] O
*I *168:X O *D sky130_fd_sc_hd__buf_2
*CAP
1 out[3] 0.000271682
2 *168:X 0.000271682
3 out[3] out[4] 0
4 out[3] *169:A 5.94884e-05
5 out[2] out[3] 0
*RES
1 *168:X out[3] 19.3371 
*END

*D_NET *15 0.000442204
*CONN
*P out[4] O
*I *169:X O *D sky130_fd_sc_hd__buf_2
*CAP
1 out[4] 0.000217973
2 *169:X 0.000217973
3 out[4] out[5] 0
4 out[4] *172:A 6.2589e-06
5 out[3] out[4] 0
*RES
1 *169:X out[4] 18.1229 
*END

*D_NET *16 0.000586236
*CONN
*P out[5] O
*I *170:X O *D sky130_fd_sc_hd__buf_2
*CAP
1 out[5] 0.000271635
2 *170:X 0.000271635
3 out[5] out[6] 0
4 out[5] *172:A 4.29654e-05
5 out[4] out[5] 0
*RES
1 *170:X out[5] 19.3371 
*END

*D_NET *17 0.000760908
*CONN
*P out[6] O
*I *171:X O *D sky130_fd_sc_hd__buf_2
*CAP
1 out[6] 0.000380454
2 *171:X 0.000380454
3 out[6] out[7] 0
4 out[5] out[6] 0
*RES
1 *171:X out[6] 18.5553 
*END

*D_NET *18 0.00103775
*CONN
*P out[7] O
*I *172:X O *D sky130_fd_sc_hd__clkbuf_4
*CAP
1 out[7] 0.000518877
2 *172:X 0.000518877
3 out[6] out[7] 0
*RES
1 *172:X out[7] 24.4258 
*END

*D_NET *19 0.00677316
*CONN
*I *156:A I *D sky130_fd_sc_hd__nor2_1
*I *141:B I *D sky130_fd_sc_hd__xnor2_1
*I *140:Y O *D sky130_fd_sc_hd__nor2_1
*CAP
1 *156:A 9.65475e-05
2 *141:B 0.00121319
3 *140:Y 0
4 *19:6 0.00130974
5 *141:B *143:A 0.000421034
6 *141:B *143:B 9.90431e-05
7 *141:B *143:C 0.000616973
8 *141:B *146:A 0.000171368
9 *141:B *147:A 0.000175519
10 *141:B *156:B 0.00102555
11 *141:B *170:A 1.32056e-05
12 *141:B *172:A 0.000299705
13 *141:B *173:A 0.000248769
14 *141:B *21:10 5.71472e-05
15 *141:B *31:16 0.000142152
16 *141:B *37:18 0.000503966
17 *156:A *156:B 0.000274387
18 *156:A *173:A 2.06827e-05
19 *156:A *37:12 6.35416e-05
20 *156:A *37:18 2.06471e-05
*RES
1 *140:Y *19:6 13.8 
2 *19:6 *141:B 47.0321 
3 *19:6 *156:A 17.2643 
*END

*D_NET *20 0.00560672
*CONN
*I *144:A_N I *D sky130_fd_sc_hd__and2b_1
*I *142:X O *D sky130_fd_sc_hd__o31a_1
*CAP
1 *144:A_N 0.00232829
2 *142:X 0.00232829
3 *144:A_N *142:B1 0.000311475
4 *144:A_N *143:D 0.000120829
5 *144:A_N *149:B 5.7903e-06
6 *144:A_N *168:A 0.000139625
7 *144:A_N *173:A 0.000146335
8 *144:A_N *25:10 0.000111666
9 *144:A_N *40:23 0.000114414
*RES
1 *142:X *144:A_N 49.9576 
*END

*D_NET *21 0.00603999
*CONN
*I *150:D I *D sky130_fd_sc_hd__or4_1
*I *146:B I *D sky130_fd_sc_hd__nor2_1
*I *147:B I *D sky130_fd_sc_hd__and2_1
*I *151:A3 I *D sky130_fd_sc_hd__o31ai_1
*I *144:B I *D sky130_fd_sc_hd__and2b_1
*I *143:X O *D sky130_fd_sc_hd__or4_2
*CAP
1 *150:D 8.66789e-05
2 *146:B 6.44477e-05
3 *147:B 0.000113083
4 *151:A3 0
5 *144:B 0.000356392
6 *143:X 0.000332959
7 *21:38 0.000383101
8 *21:34 0.000484508
9 *21:14 0.00044403
10 *21:10 0.000612856
11 *144:B *152:B 0.000398157
12 *144:B *40:10 0.000604713
13 *146:B *146:A 5.49489e-05
14 *146:B *23:8 4.10926e-05
15 *147:B *173:A 0.000101444
16 *147:B *29:14 0.000387432
17 *147:B *37:18 0.000387432
18 *150:D *150:B 7.15591e-05
19 *150:D *40:23 4.94455e-05
20 *21:10 *41:23 0.000207278
21 *21:10 *42:10 0
22 *21:10 *43:14 0
23 *21:14 *40:10 0.00014183
24 *21:14 *40:23 2.14658e-05
25 *21:34 *150:B 0.000211467
26 *21:34 *40:23 0.000142822
27 *21:34 *41:23 1.99921e-05
28 *21:34 *43:14 0
29 *21:38 *23:8 0.000226894
30 *141:B *21:10 5.71472e-05
31 *162:A *144:B 3.6813e-05
*RES
1 *143:X *21:10 20.5321 
2 *21:10 *21:14 6.26786 
3 *21:14 *144:B 17.8 
4 *21:14 *151:A3 9.3 
5 *21:10 *21:34 5.58929 
6 *21:34 *21:38 8.73214 
7 *21:38 *147:B 23.2821 
8 *21:38 *146:B 10.6571 
9 *21:34 *150:D 15.7464 
*END

*D_NET *22 0.00191645
*CONN
*I *145:A I *D sky130_fd_sc_hd__clkbuf_1
*I *144:X O *D sky130_fd_sc_hd__and2b_1
*CAP
1 *145:A 0.000759014
2 *144:X 0.000759014
3 *145:A *148:A 0.00018232
4 *145:A *149:B 0.000216098
*RES
1 *144:X *145:A 43.0464 
*END

*D_NET *23 0.00573549
*CONN
*I *148:A I *D sky130_fd_sc_hd__nor2_1
*I *149:B I *D sky130_fd_sc_hd__xnor2_1
*I *146:Y O *D sky130_fd_sc_hd__nor2_1
*CAP
1 *148:A 0.000460171
2 *149:B 0.000604342
3 *146:Y 0.00134353
4 *23:8 0.00240804
5 *149:B *149:A 0.000153047
6 *149:B *170:A 0
7 *149:B *38:12 0
8 *23:8 *146:A 9.41642e-05
9 *144:A_N *149:B 5.7903e-06
10 *145:A *148:A 0.00018232
11 *145:A *149:B 0.000216098
12 *146:B *23:8 4.10926e-05
13 *161:A *148:A 0
14 *162:A *149:B 0
15 *163:A *149:B 0
16 *21:38 *23:8 0.000226894
*RES
1 *146:Y *23:8 29.1214 
2 *23:8 *149:B 26.675 
3 *23:8 *148:A 22.4071 
*END

*D_NET *24 0.00104672
*CONN
*I *148:B I *D sky130_fd_sc_hd__nor2_1
*I *147:X O *D sky130_fd_sc_hd__and2_1
*CAP
1 *148:B 0.000365757
2 *147:X 0.000365757
3 *148:B *169:A 0.000315207
*RES
1 *147:X *148:B 26.5286 
*END

*D_NET *25 0.00313874
*CONN
*I *154:B I *D sky130_fd_sc_hd__xor2_1
*I *152:A I *D sky130_fd_sc_hd__and2_1
*I *150:X O *D sky130_fd_sc_hd__or4_1
*CAP
1 *154:B 0
2 *152:A 0.000672493
3 *150:X 0.000241499
4 *25:10 0.000913992
5 *152:A *143:D 0.000177948
6 *152:A *153:A 4.72114e-05
7 *152:A *29:14 9.57064e-05
8 *25:10 *143:D 0.000524115
9 *25:10 *168:A 6.05161e-06
10 *25:10 *29:14 0.0002844
11 *25:10 *39:12 5.52238e-05
12 *25:10 *40:34 8.43535e-06
13 *144:A_N *25:10 0.000111666
*RES
1 *150:X *25:10 21.55 
2 *25:10 *152:A 25.6214 
3 *25:10 *154:B 13.8 
*END

*D_NET *26 0.00124936
*CONN
*I *152:B I *D sky130_fd_sc_hd__and2_1
*I *151:Y O *D sky130_fd_sc_hd__o31ai_1
*CAP
1 *152:B 0.000349429
2 *151:Y 0.000349429
3 *152:B *31:16 0
4 *152:B *38:12 0.00015234
5 *144:B *152:B 0.000398157
*RES
1 *151:Y *152:B 33.3679 
*END

*D_NET *27 0.000697391
*CONN
*I *153:A I *D sky130_fd_sc_hd__clkbuf_1
*I *152:X O *D sky130_fd_sc_hd__and2_1
*CAP
1 *153:A 0.00021174
2 *152:X 0.00021174
3 *153:A *170:A 0.000100262
4 *153:A *31:16 0.000126439
5 *153:A *38:12 0
6 *152:A *153:A 4.72114e-05
*RES
1 *152:X *153:A 31.5464 
*END

*D_NET *28 0.00347288
*CONN
*I *156:B I *D sky130_fd_sc_hd__nor2_1
*I *155:X O *D sky130_fd_sc_hd__and2_1
*CAP
1 *156:B 0.000593532
2 *155:X 0.000593532
3 *156:B *155:A 2.89114e-05
4 *156:B *169:A 0.000703764
5 *156:B *172:A 7.6644e-05
6 *156:B *173:A 0.000168051
7 out[2] *156:B 8.50795e-06
8 *141:B *156:B 0.00102555
9 *156:A *156:B 0.000274387
*RES
1 *155:X *156:B 45.85 
*END

*D_NET *29 0.00723946
*CONN
*I *142:A2 I *D sky130_fd_sc_hd__o31a_1
*I *140:B I *D sky130_fd_sc_hd__nor2_1
*I *155:B I *D sky130_fd_sc_hd__and2_1
*I *157:A I *D sky130_fd_sc_hd__clkbuf_1
*I *143:B I *D sky130_fd_sc_hd__or4_2
*I *158:X O *D sky130_fd_sc_hd__buf_1
*CAP
1 *142:A2 0
2 *140:B 0.000134215
3 *155:B 0.000126229
4 *157:A 0.000108206
5 *143:B 0.000164332
6 *158:X 0.000836465
7 *29:16 0.000334846
8 *29:14 0.000588825
9 *29:12 0.00059763
10 *29:10 0.000899592
11 *140:B *140:A 9.83442e-05
12 *140:B *31:16 7.29832e-05
13 *143:B *143:A 3.13877e-05
14 *143:B *143:D 6.90461e-05
15 *143:B *171:A 7.6644e-05
16 *155:B *155:A 0.000137983
17 *157:A *170:A 0.000222244
18 *29:10 *173:A 2.72545e-05
19 *29:10 *37:10 0.000494034
20 *29:10 *37:12 1.02504e-05
21 *29:12 *142:A3 0.00010326
22 *29:12 *142:B1 1.37292e-05
23 *29:12 *168:A 2.14378e-05
24 *29:12 *37:12 0.00020042
25 *29:14 *142:B1 7.80714e-06
26 *29:14 *143:A 1.76135e-05
27 *29:14 *143:D 1.18358e-05
28 *29:14 *168:A 0.000217162
29 *29:14 *173:A 0.000134777
30 *29:14 *37:12 2.31791e-05
31 *29:14 *37:18 0.000411075
32 *29:16 *143:A 9.34004e-05
33 *29:16 *143:D 6.39262e-05
34 out[1] *29:10 0
35 *141:B *143:B 9.90431e-05
36 *147:B *29:14 0.000387432
37 *152:A *29:14 9.57064e-05
38 *159:A *29:10 2.27416e-05
39 *25:10 *29:14 0.0002844
*RES
1 *158:X *29:10 30.3357 
2 *29:10 *29:12 2.55357 
3 *29:12 *29:14 15 
4 *29:14 *29:16 2.25 
5 *29:16 *143:B 17.3536 
6 *29:16 *157:A 15.9786 
7 *29:14 *155:B 15.9786 
8 *29:12 *140:B 16.4071 
9 *29:10 *142:A2 13.8 
*END

*D_NET *30 0.000270774
*CONN
*I *166:A I *D sky130_fd_sc_hd__buf_2
*I *156:Y O *D sky130_fd_sc_hd__nor2_1
*CAP
1 *166:A 0.000111395
2 *156:Y 0.000111395
3 *166:A *173:A 4.79842e-05
*RES
1 *156:Y *166:A 29.7786 
*END

*D_NET *31 0.00426027
*CONN
*I *167:A I *D sky130_fd_sc_hd__buf_2
*I *141:Y O *D sky130_fd_sc_hd__xnor2_1
*CAP
1 *167:A 0
2 *141:Y 0.00144452
3 *31:16 0.00144452
4 *31:16 *140:A 9.77414e-05
5 *31:16 *142:A3 0.000199157
6 *31:16 *143:C 0.000144075
7 *31:16 *150:B 0
8 *31:16 *150:C 0.000308585
9 *31:16 *38:12 0
10 *31:16 *42:10 0.000280103
11 *140:B *31:16 7.29832e-05
12 *141:B *31:16 0.000142152
13 *152:B *31:16 0
14 *153:A *31:16 0.000126439
*RES
1 *141:Y *31:16 48.3 
2 *31:16 *167:A 9.3 
*END

*D_NET *32 0.00325644
*CONN
*I *168:A I *D sky130_fd_sc_hd__buf_2
*I *145:X O *D sky130_fd_sc_hd__clkbuf_1
*CAP
1 *168:A 0.000998245
2 *145:X 0.000998245
3 *168:A *142:A3 0.000101545
4 *168:A *142:B1 0.000554415
5 *168:A *40:34 0.000219711
6 *144:A_N *168:A 0.000139625
7 *25:10 *168:A 6.05161e-06
8 *29:12 *168:A 2.14378e-05
9 *29:14 *168:A 0.000217162
*RES
1 *145:X *168:A 47.6893 
*END

*D_NET *33 0.00349283
*CONN
*I *169:A I *D sky130_fd_sc_hd__buf_2
*I *148:Y O *D sky130_fd_sc_hd__nor2_1
*CAP
1 *169:A 0.00120719
2 *148:Y 0.00120719
3 out[3] *169:A 5.94884e-05
4 *148:B *169:A 0.000315207
5 *156:B *169:A 0.000703764
*RES
1 *148:Y *169:A 47.3321 
*END

*D_NET *34 0.00284805
*CONN
*I *170:A I *D sky130_fd_sc_hd__buf_2
*I *149:Y O *D sky130_fd_sc_hd__xnor2_1
*CAP
1 *170:A 0.000765263
2 *149:Y 0.000765263
3 *170:A *149:A 0
4 *170:A *171:A 0.000247622
5 *170:A *38:12 0.000121842
6 *170:A *41:23 0.000612348
7 *141:B *170:A 1.32056e-05
8 *149:B *170:A 0
9 *153:A *170:A 0.000100262
10 *157:A *170:A 0.000222244
*RES
1 *149:Y *170:A 43.8857 
*END

*D_NET *35 0.00251721
*CONN
*I *171:A I *D sky130_fd_sc_hd__buf_2
*I *153:X O *D sky130_fd_sc_hd__clkbuf_1
*CAP
1 *171:A 0.000884948
2 *153:X 0.000884948
3 *171:A *143:A 7.60306e-05
4 *171:A *143:D 3.28804e-05
5 *171:A *172:A 0
6 *171:A *41:23 0.000314139
7 *171:A *43:14 0
8 *143:B *171:A 7.6644e-05
9 *170:A *171:A 0.000247622
*RES
1 *153:X *171:A 41.9214 
*END

*D_NET *36 0.00174721
*CONN
*I *172:A I *D sky130_fd_sc_hd__clkbuf_4
*I *154:X O *D sky130_fd_sc_hd__xor2_1
*CAP
1 *172:A 0.00065236
2 *154:X 0.00065236
3 *172:A *143:A 1.69115e-05
4 out[4] *172:A 6.2589e-06
5 out[5] *172:A 4.29654e-05
6 *141:B *172:A 0.000299705
7 *156:B *172:A 7.6644e-05
8 *171:A *172:A 0
*RES
1 *154:X *172:A 40.2071 
*END

*D_NET *37 0.00755682
*CONN
*I *142:A1 I *D sky130_fd_sc_hd__o31a_1
*I *140:A I *D sky130_fd_sc_hd__nor2_1
*I *155:A I *D sky130_fd_sc_hd__and2_1
*I *143:A I *D sky130_fd_sc_hd__or4_2
*I *159:X O *D sky130_fd_sc_hd__buf_1
*CAP
1 *142:A1 0
2 *140:A 1.88397e-05
3 *155:A 0.000109649
4 *143:A 0.000328885
5 *159:X 0.000993794
6 *37:18 0.000827499
7 *37:12 0.000484881
8 *37:10 0.00107087
9 *143:A *143:C 5.52238e-05
10 *143:A *173:A 2.06112e-05
11 *37:10 *173:A 0.000128146
12 *37:12 *173:A 4.51691e-05
13 *37:18 *146:A 0.000173083
14 *37:18 *147:A 0.000166269
15 *140:B *140:A 9.83442e-05
16 *141:B *143:A 0.000421034
17 *141:B *37:18 0.000503966
18 *143:B *143:A 3.13877e-05
19 *147:B *37:18 0.000387432
20 *155:B *155:A 0.000137983
21 *156:A *37:12 6.35416e-05
22 *156:A *37:18 2.06471e-05
23 *156:B *155:A 2.89114e-05
24 *171:A *143:A 7.60306e-05
25 *172:A *143:A 1.69115e-05
26 *29:10 *37:10 0.000494034
27 *29:10 *37:12 1.02504e-05
28 *29:12 *37:12 0.00020042
29 *29:14 *143:A 1.76135e-05
30 *29:14 *37:12 2.31791e-05
31 *29:14 *37:18 0.000411075
32 *29:16 *143:A 9.34004e-05
33 *31:16 *140:A 9.77414e-05
*RES
1 *159:X *37:10 28.3 
2 *37:10 *37:12 2.85714 
3 *37:12 *37:18 15.0536 
4 *37:18 *143:A 22.4964 
5 *37:18 *155:A 15.9786 
6 *37:12 *140:A 14.7464 
7 *37:10 *142:A1 13.8 
*END

*D_NET *38 0.00672266
*CONN
*I *142:A3 I *D sky130_fd_sc_hd__o31a_1
*I *143:C I *D sky130_fd_sc_hd__or4_2
*I *141:A I *D sky130_fd_sc_hd__xnor2_1
*I *160:X O *D sky130_fd_sc_hd__buf_1
*CAP
1 *142:A3 0.000805748
2 *143:C 0.000302702
3 *141:A 0
4 *160:X 0.000340183
5 *38:12 0.00146819
6 *38:6 0.00231142
7 *38:12 *149:A 0
8 *38:12 *42:10 0
9 *141:B *143:C 0.000616973
10 *143:A *143:C 5.52238e-05
11 *149:B *38:12 0
12 *152:B *38:12 0.00015234
13 *153:A *38:12 0
14 *168:A *142:A3 0.000101545
15 *170:A *38:12 0.000121842
16 *29:12 *142:A3 0.00010326
17 *31:16 *142:A3 0.000199157
18 *31:16 *143:C 0.000144075
19 *31:16 *38:12 0
*RES
1 *160:X *38:6 13.1214 
2 *38:6 *38:12 29.4643 
3 *38:12 *141:A 9.3 
4 *38:12 *143:C 17.6571 
5 *38:6 *142:A3 29.2107 
*END

*D_NET *39 0.00631113
*CONN
*I *142:B1 I *D sky130_fd_sc_hd__o31a_1
*I *143:D I *D sky130_fd_sc_hd__or4_2
*I *161:X O *D sky130_fd_sc_hd__buf_1
*CAP
1 *142:B1 0.000365423
2 *143:D 0.000420408
3 *161:X 0.00103991
4 *39:12 0.00182574
5 *142:B1 *150:B 0
6 *142:B1 *40:23 9.11365e-06
7 *143:D *40:23 0.000188479
8 *143:D *43:14 0.000329341
9 *39:12 *150:C 0.000115436
10 *39:12 *40:34 7.40432e-05
11 *143:B *143:D 6.90461e-05
12 *144:A_N *142:B1 0.000311475
13 *144:A_N *143:D 0.000120829
14 *152:A *143:D 0.000177948
15 *168:A *142:B1 0.000554415
16 *171:A *143:D 3.28804e-05
17 *25:10 *143:D 0.000524115
18 *25:10 *39:12 5.52238e-05
19 *29:12 *142:B1 1.37292e-05
20 *29:14 *142:B1 7.80714e-06
21 *29:14 *143:D 1.18358e-05
22 *29:16 *143:D 6.39262e-05
*RES
1 *161:X *39:12 26.8 
2 *39:12 *143:D 28.4964 
3 *39:12 *142:B1 22.3536 
*END

*D_NET *40 0.00463163
*CONN
*I *147:A I *D sky130_fd_sc_hd__and2_1
*I *146:A I *D sky130_fd_sc_hd__nor2_1
*I *150:A I *D sky130_fd_sc_hd__or4_1
*I *151:A1 I *D sky130_fd_sc_hd__o31ai_1
*I *162:X O *D sky130_fd_sc_hd__buf_1
*CAP
1 *147:A 4.76724e-05
2 *146:A 0.000151903
3 *150:A 0
4 *151:A1 0
5 *162:X 0.000313147
6 *40:34 0.00042173
7 *40:23 0.000577209
8 *40:10 0.0006682
9 *40:10 *151:A2 3.33174e-05
10 *40:23 *150:B 0
11 *40:23 *43:14 8.6229e-06
12 *141:B *146:A 0.000171368
13 *141:B *147:A 0.000175519
14 *142:B1 *40:23 9.11365e-06
15 *143:D *40:23 0.000188479
16 *144:A_N *40:23 0.000114414
17 *144:B *40:10 0.000604713
18 *146:B *146:A 5.49489e-05
19 *150:D *40:23 4.94455e-05
20 *168:A *40:34 0.000219711
21 *21:14 *40:10 0.00014183
22 *21:14 *40:23 2.14658e-05
23 *21:34 *40:23 0.000142822
24 *23:8 *146:A 9.41642e-05
25 *25:10 *40:34 8.43535e-06
26 *37:18 *146:A 0.000173083
27 *37:18 *147:A 0.000166269
28 *39:12 *40:34 7.40432e-05
*RES
1 *162:X *40:10 17.2643 
2 *40:10 *151:A1 9.3 
3 *40:10 *40:23 17.875 
4 *40:23 *150:A 9.3 
5 *40:23 *40:34 8.75 
6 *40:34 *146:A 17.8357 
7 *40:34 *147:A 16.05 
*END

*D_NET *41 0.00415378
*CONN
*I *150:B I *D sky130_fd_sc_hd__or4_1
*I *151:A2 I *D sky130_fd_sc_hd__o31ai_1
*I *149:A I *D sky130_fd_sc_hd__xnor2_1
*I *163:X O *D sky130_fd_sc_hd__buf_1
*CAP
1 *150:B 0.000424293
2 *151:A2 1.75438e-05
3 *149:A 9.1147e-05
4 *163:X 7.48367e-05
5 *41:23 0.00107266
6 *41:6 0.000796805
7 *150:B *150:C 5.33433e-05
8 *41:23 *42:10 0
9 *142:B1 *150:B 0
10 *149:B *149:A 0.000153047
11 *150:D *150:B 7.15591e-05
12 *170:A *149:A 0
13 *170:A *41:23 0.000612348
14 *171:A *41:23 0.000314139
15 *21:10 *41:23 0.000207278
16 *21:34 *150:B 0.000211467
17 *21:34 *41:23 1.99921e-05
18 *31:16 *150:B 0
19 *38:12 *149:A 0
20 *40:10 *151:A2 3.33174e-05
21 *40:23 *150:B 0
*RES
1 *163:X *41:6 10.2464 
2 *41:6 *149:A 20.55 
3 *41:6 *41:23 18.4286 
4 *41:23 *151:A2 14.1304 
5 *41:23 *150:B 22.7643 
*END

*D_NET *42 0.00419912
*CONN
*I *150:C I *D sky130_fd_sc_hd__or4_1
*I *151:B1 I *D sky130_fd_sc_hd__o31ai_1
*I *164:X O *D sky130_fd_sc_hd__clkbuf_1
*CAP
1 *150:C 0.000437055
2 *151:B1 0
3 *164:X 0.00095151
4 *42:10 0.00138857
5 *42:10 *43:14 0.000664523
6 *150:B *150:C 5.33433e-05
7 *21:10 *42:10 0
8 *31:16 *150:C 0.000308585
9 *31:16 *42:10 0.000280103
10 *38:12 *42:10 0
11 *39:12 *150:C 0.000115436
12 *41:23 *42:10 0
*RES
1 *164:X *42:10 33.2821 
2 *42:10 *151:B1 13.8 
3 *42:10 *150:C 24.2107 
*END

*D_NET *43 0.00394501
*CONN
*I *154:A I *D sky130_fd_sc_hd__xor2_1
*I *165:X O *D sky130_fd_sc_hd__buf_1
*CAP
1 *154:A 0
2 *165:X 0.00147126
3 *43:14 0.00147126
4 *143:D *43:14 0.000329341
5 *171:A *43:14 0
6 *21:10 *43:14 0
7 *21:34 *43:14 0
8 *40:23 *43:14 8.6229e-06
9 *42:10 *43:14 0.000664523
*RES
1 *165:X *43:14 42.1214 
2 *43:14 *154:A 9.3 
*END

*D_NET *44 0.00475801
*CONN
*I *173:A I *D sky130_fd_sc_hd__buf_2
*I *157:X O *D sky130_fd_sc_hd__clkbuf_1
*CAP
1 *173:A 0.00183439
2 *157:X 0.00183439
3 *141:B *173:A 0.000248769
4 *143:A *173:A 2.06112e-05
5 *144:A_N *173:A 0.000146335
6 *147:B *173:A 0.000101444
7 *156:A *173:A 2.06827e-05
8 *156:B *173:A 0.000168051
9 *166:A *173:A 4.79842e-05
10 *29:10 *173:A 2.72545e-05
11 *29:14 *173:A 0.000134777
12 *37:10 *173:A 0.000128146
13 *37:12 *173:A 4.51691e-05
*RES
1 *157:X *173:A 47.8443 
*END
