*SPEF "ieee 1481-1999"
*DESIGN "twos_complement"
*DATE "13:25:44 Saturday April 26, 2025"
*VENDOR "The OpenROAD Project"
*PROGRAM "OpenROAD"
*VERSION "b16bda7e82721d10566ff7e2b68f1ff0be9f9e38"
*DESIGN_FLOW "NAME_SCOPE LOCAL" "PIN_CAP NONE"
*DIVIDER /
*DELIMITER :
*BUS_DELIMITER []
*T_UNIT 1 NS
*C_UNIT 1 PF
*R_UNIT 1 OHM
*L_UNIT 1 HENRY

*NAME_MAP
*3 in[0]
*4 in[1]
*5 in[2]
*6 in[3]
*7 in[4]
*8 in[5]
*9 in[6]
*10 in[7]
*11 out[0]
*12 out[1]
*13 out[2]
*14 out[3]
*15 out[4]
*16 out[5]
*17 out[6]
*18 out[7]
*19 _00_
*20 _01_
*21 _02_
*22 _03_
*23 _04_
*24 _05_
*25 _06_
*26 _07_
*27 _08_
*28 _09_
*29 net1
*30 net10
*31 net11
*32 net12
*33 net13
*34 net14
*35 net15
*36 net16
*37 net2
*38 net3
*39 net4
*40 net5
*41 net6
*42 net7
*43 net8
*44 net9
*45 FILLER_0_0_21
*46 FILLER_0_0_27
*47 FILLER_0_0_29
*48 FILLER_0_0_37
*49 FILLER_0_0_9
*50 FILLER_0_10_18
*51 FILLER_0_10_26
*52 FILLER_0_10_29
*53 FILLER_0_10_41
*54 FILLER_0_10_6
*55 FILLER_0_11_18
*56 FILLER_0_11_30
*57 FILLER_0_11_43
*58 FILLER_0_11_47
*59 FILLER_0_11_6
*60 FILLER_0_12_13
*61 FILLER_0_12_25
*62 FILLER_0_12_29
*63 FILLER_0_12_37
*64 FILLER_0_1_15
*65 FILLER_0_1_27
*66 FILLER_0_1_3
*67 FILLER_0_1_32
*68 FILLER_0_1_44
*69 FILLER_0_2_15
*70 FILLER_0_2_27
*71 FILLER_0_2_29
*72 FILLER_0_2_3
*73 FILLER_0_2_35
*74 FILLER_0_2_41
*75 FILLER_0_3_18
*76 FILLER_0_3_30
*77 FILLER_0_3_36
*78 FILLER_0_3_6
*79 FILLER_0_4_11
*80 FILLER_0_4_23
*81 FILLER_0_4_27
*82 FILLER_0_4_29
*83 FILLER_0_4_3
*84 FILLER_0_4_7
*85 FILLER_0_5_12
*86 FILLER_0_5_23
*87 FILLER_0_5_35
*88 FILLER_0_5_6
*89 FILLER_0_6_10
*90 FILLER_0_6_22
*91 FILLER_0_6_29
*92 FILLER_0_6_41
*93 FILLER_0_6_47
*94 FILLER_0_7_15
*95 FILLER_0_7_27
*96 FILLER_0_7_3
*97 FILLER_0_7_36
*98 FILLER_0_8_12
*99 FILLER_0_8_24
*100 FILLER_0_8_29
*101 FILLER_0_8_39
*102 FILLER_0_8_43
*103 FILLER_0_9_12
*104 FILLER_0_9_24
*105 FILLER_0_9_3
*106 FILLER_0_9_36
*107 PHY_EDGE_ROW_0_Left_13
*108 PHY_EDGE_ROW_0_Right_0
*109 PHY_EDGE_ROW_10_Left_23
*110 PHY_EDGE_ROW_10_Right_10
*111 PHY_EDGE_ROW_11_Left_24
*112 PHY_EDGE_ROW_11_Right_11
*113 PHY_EDGE_ROW_12_Left_25
*114 PHY_EDGE_ROW_12_Right_12
*115 PHY_EDGE_ROW_1_Left_14
*116 PHY_EDGE_ROW_1_Right_1
*117 PHY_EDGE_ROW_2_Left_15
*118 PHY_EDGE_ROW_2_Right_2
*119 PHY_EDGE_ROW_3_Left_16
*120 PHY_EDGE_ROW_3_Right_3
*121 PHY_EDGE_ROW_4_Left_17
*122 PHY_EDGE_ROW_4_Right_4
*123 PHY_EDGE_ROW_5_Left_18
*124 PHY_EDGE_ROW_5_Right_5
*125 PHY_EDGE_ROW_6_Left_19
*126 PHY_EDGE_ROW_6_Right_6
*127 PHY_EDGE_ROW_7_Left_20
*128 PHY_EDGE_ROW_7_Right_7
*129 PHY_EDGE_ROW_8_Left_21
*130 PHY_EDGE_ROW_8_Right_8
*131 PHY_EDGE_ROW_9_Left_22
*132 PHY_EDGE_ROW_9_Right_9
*133 TAP_TAPCELL_ROW_0_26
*134 TAP_TAPCELL_ROW_10_31
*135 TAP_TAPCELL_ROW_12_32
*136 TAP_TAPCELL_ROW_2_27
*137 TAP_TAPCELL_ROW_4_28
*138 TAP_TAPCELL_ROW_6_29
*139 TAP_TAPCELL_ROW_8_30
*140 _10_
*141 _11_
*142 _12_
*143 _13_
*144 _14_
*145 _15_
*146 _16_
*147 _17_
*148 _18_
*149 _19_
*150 _20_
*151 _21_
*152 _22_
*153 _23_
*154 _24_
*155 _25_
*156 _26_
*157 _27_
*158 input1
*159 input2
*160 input3
*161 input4
*162 input5
*163 input6
*164 input7
*165 input8
*166 output10
*167 output11
*168 output12
*169 output13
*170 output14
*171 output15
*172 output16
*173 output9

*PORTS
in[0] I
in[1] I
in[2] I
in[3] I
in[4] I
in[5] I
in[6] I
in[7] I
out[0] O
out[1] O
out[2] O
out[3] O
out[4] O
out[5] O
out[6] O
out[7] O

*D_NET *3 0.00105377
*CONN
*P in[0] I
*I *158:A I *D sky130_fd_sc_hd__dlymetal6s2s_1
*CAP
1 in[0] 0.000526885
2 *158:A 0.000526885
3 *158:A *159:A 0
*RES
1 in[0] *158:A 24.1943 
*END

*D_NET *4 0.000762532
*CONN
*P in[1] I
*I *159:A I *D sky130_fd_sc_hd__buf_1
*CAP
1 in[1] 0.000381266
2 *159:A 0.000381266
3 *159:A *160:A 0
4 *158:A *159:A 0
*RES
1 in[1] *159:A 22.3017 
*END

*D_NET *5 0.000584769
*CONN
*P in[2] I
*I *160:A I *D sky130_fd_sc_hd__buf_1
*CAP
1 in[2] 0.000289359
2 *160:A 0.000289359
3 *160:A *161:A 0
4 *160:A *38:14 6.05161e-06
5 *159:A *160:A 0
*RES
1 in[2] *160:A 20.4803 
*END

*D_NET *6 0.00115765
*CONN
*P in[3] I
*I *161:A I *D sky130_fd_sc_hd__clkbuf_1
*CAP
1 in[3] 0.000423198
2 *161:A 0.000423198
3 *161:A *150:D 2.89016e-05
4 *161:A *151:B1 0.000183027
5 *161:A *162:A 0
6 *161:A *20:14 5.33005e-05
7 *161:A *21:36 4.60235e-05
8 *161:A *38:14 0
9 *160:A *161:A 0
*RES
1 in[3] *161:A 23.8882 
*END

*D_NET *7 0.000605554
*CONN
*P in[4] I
*I *162:A I *D sky130_fd_sc_hd__buf_1
*CAP
1 in[4] 0.000302777
2 *162:A 0.000302777
3 *162:A *163:A 0
4 *162:A *20:14 0
5 *161:A *162:A 0
*RES
1 in[4] *162:A 20.7838 
*END

*D_NET *8 0.000715317
*CONN
*P in[5] I
*I *163:A I *D sky130_fd_sc_hd__buf_1
*CAP
1 in[5] 0.000357659
2 *163:A 0.000357659
3 *163:A *164:A 0
4 *163:A *20:14 0
5 *163:A *42:8 0
6 *162:A *163:A 0
*RES
1 in[5] *163:A 21.9981 
*END

*D_NET *9 0.000563768
*CONN
*P in[6] I
*I *164:A I *D sky130_fd_sc_hd__buf_1
*CAP
1 in[6] 0.000281884
2 *164:A 0.000281884
3 *164:A *165:A 0
4 *163:A *164:A 0
*RES
1 in[6] *164:A 20.4803 
*END

*D_NET *10 0.00123174
*CONN
*P in[7] I
*I *165:A I *D sky130_fd_sc_hd__clkbuf_1
*CAP
1 in[7] 0.000615872
2 *165:A 0.000615872
3 *164:A *165:A 0
*RES
1 in[7] *165:A 25.0176 
*END

*D_NET *11 0.00116601
*CONN
*P out[0] O
*I *173:X O *D sky130_fd_sc_hd__buf_2
*CAP
1 out[0] 0.000583005
2 *173:X 0.000583005
3 out[0] out[1] 0
*RES
1 *173:X out[0] 23.8754 
*END

*D_NET *12 0.000438356
*CONN
*P out[1] O
*I *166:X O *D sky130_fd_sc_hd__buf_2
*CAP
1 out[1] 0.000219178
2 *166:X 0.000219178
3 out[1] out[2] 0
4 out[0] out[1] 0
*RES
1 *166:X out[1] 18.1229 
*END

*D_NET *13 0.000438086
*CONN
*P out[2] O
*I *167:X O *D sky130_fd_sc_hd__buf_2
*CAP
1 out[2] 0.000214789
2 *167:X 0.000214789
3 out[2] out[3] 0
4 out[2] *156:B 8.50795e-06
5 out[1] out[2] 0
*RES
1 *167:X out[2] 18.1229 
*END

*D_NET *14 0.000583217
*CONN
*P out[3] O
*I *168:X O *D sky130_fd_sc_hd__buf_2
*CAP
1 out[3] 0.000260236
2 *168:X 0.000260236
3 out[3] out[4] 0
4 out[3] *168:A 6.27457e-05
5 out[2] out[3] 0
*RES
1 *168:X out[3] 19.3371 
*END

*D_NET *15 0.000674688
*CONN
*P out[4] O
*I *169:X O *D sky130_fd_sc_hd__buf_2
*CAP
1 out[4] 0.000327019
2 *169:X 0.000327019
3 out[4] out[5] 0
4 out[4] *142:B1 2.06507e-05
5 out[3] out[4] 0
*RES
1 *169:X out[4] 20.2096 
*END

*D_NET *16 0.00116825
*CONN
*P out[5] O
*I *170:X O *D sky130_fd_sc_hd__buf_2
*CAP
1 out[5] 0.00049634
2 *170:X 0.00049634
3 out[5] out[6] 0
4 out[5] *171:A 0.000116928
5 out[5] *36:22 5.86388e-05
6 out[4] out[5] 0
*RES
1 *170:X out[5] 19.8416 
*END

*D_NET *17 0.000776205
*CONN
*P out[6] O
*I *171:X O *D sky130_fd_sc_hd__buf_2
*CAP
1 out[6] 0.000388102
2 *171:X 0.000388102
3 out[6] out[7] 0
4 out[5] out[6] 0
*RES
1 *171:X out[6] 18.5553 
*END

*D_NET *18 0.00103775
*CONN
*P out[7] O
*I *172:X O *D sky130_fd_sc_hd__clkbuf_4
*CAP
1 out[7] 0.000518877
2 *172:X 0.000518877
3 out[6] out[7] 0
*RES
1 *172:X out[7] 24.4258 
*END

*D_NET *19 0.00396582
*CONN
*I *156:A I *D sky130_fd_sc_hd__nor2_1
*I *141:B I *D sky130_fd_sc_hd__xnor2_1
*I *140:Y O *D sky130_fd_sc_hd__nor2_1
*CAP
1 *156:A 0.000674407
2 *141:B 0.000204793
3 *140:Y 0
4 *19:4 0.0008792
5 *141:B *140:B 2.84109e-05
6 *141:B *41:14 0.000442078
7 *141:B *42:8 0.000443785
8 *156:A *140:A 0.00117388
9 *156:A *140:B 2.36643e-05
10 *156:A *169:A 9.56035e-05
*RES
1 *140:Y *19:4 9.3 
2 *19:4 *141:B 25.2464 
3 *19:4 *156:A 22.9964 
*END

*D_NET *20 0.00428471
*CONN
*I *144:A_N I *D sky130_fd_sc_hd__and2b_1
*I *142:X O *D sky130_fd_sc_hd__o31a_1
*CAP
1 *144:A_N 0
2 *142:X 0.00134785
3 *20:14 0.00134785
4 *20:14 *36:22 0.000117044
5 *20:14 *38:14 0.000370533
6 *20:14 *41:14 9.71197e-05
7 *20:14 *42:8 0.000951009
8 *161:A *20:14 5.33005e-05
9 *162:A *20:14 0
10 *163:A *20:14 0
*RES
1 *142:X *20:14 46.1214 
2 *20:14 *144:A_N 9.3 
*END

*D_NET *21 0.00657926
*CONN
*I *151:A3 I *D sky130_fd_sc_hd__o31ai_1
*I *144:B I *D sky130_fd_sc_hd__and2b_1
*I *150:D I *D sky130_fd_sc_hd__or4_1
*I *147:B I *D sky130_fd_sc_hd__and2_1
*I *146:B I *D sky130_fd_sc_hd__nor2_1
*I *143:X O *D sky130_fd_sc_hd__or4_2
*CAP
1 *151:A3 0
2 *144:B 0
3 *150:D 9.7951e-05
4 *147:B 4.10657e-05
5 *146:B 0.0001353
6 *143:X 0.000322918
7 *21:36 0.000638529
8 *21:34 0.000783776
9 *21:10 0.000405522
10 *21:8 0.000795273
11 *146:B *146:A 2.00751e-05
12 *146:B *171:A 0
13 *146:B *23:12 6.65398e-05
14 *147:B *147:A 0.000272371
15 *147:B *22:14 0.000272371
16 *150:D *150:C 0.000153047
17 *150:D *29:16 0
18 *150:D *38:14 1.00375e-05
19 *150:D *41:14 0.000103267
20 *21:8 *143:A 1.39726e-05
21 *21:8 *152:A 1.38323e-05
22 *21:8 *36:22 0.000178847
23 *21:8 *37:33 0.00018372
24 *21:10 *148:B 0.000118352
25 *21:10 *169:A 6.42242e-05
26 *21:10 *171:A 0
27 *21:10 *23:12 0.000274394
28 *21:34 *151:A2 3.34295e-05
29 *21:34 *152:B 0.000504628
30 *21:34 *169:A 4.33438e-05
31 *21:34 *23:12 2.99773e-05
32 *21:34 *44:20 0.000466506
33 *21:36 *151:A1 3.14078e-05
34 *21:36 *151:B1 0.000429654
35 *161:A *150:D 2.89016e-05
36 *161:A *21:36 4.60235e-05
*RES
1 *143:X *21:8 18.0321 
2 *21:8 *21:10 6.80357 
3 *21:10 *146:B 16.5857 
4 *21:10 *147:B 16.3893 
5 *21:8 *21:34 13.125 
6 *21:34 *21:36 10.3929 
7 *21:36 *150:D 21.0857 
8 *21:36 *144:B 9.3 
9 *21:34 *151:A3 9.3 
*END

*D_NET *22 0.00450053
*CONN
*I *145:A I *D sky130_fd_sc_hd__clkbuf_1
*I *144:X O *D sky130_fd_sc_hd__and2b_1
*CAP
1 *145:A 0
2 *144:X 0.00142878
3 *22:14 0.00142878
4 *22:14 *147:A 8.70693e-05
5 *22:14 *148:B 3.18676e-05
6 *22:14 *168:A 3.18676e-05
7 *22:14 *40:14 0.0002214
8 *22:14 *41:14 0.000945443
9 *22:14 *42:8 5.29554e-05
10 *147:B *22:14 0.000272371
*RES
1 *144:X *22:14 48.6571 
2 *22:14 *145:A 9.3 
*END

*D_NET *23 0.00494619
*CONN
*I *149:B I *D sky130_fd_sc_hd__xnor2_1
*I *148:A I *D sky130_fd_sc_hd__nor2_1
*I *146:Y O *D sky130_fd_sc_hd__nor2_1
*CAP
1 *149:B 0.00057267
2 *148:A 0
3 *146:Y 0.000615118
4 *23:12 0.00118779
5 *149:B *155:B 0.000227532
6 *149:B *166:A 6.8646e-06
7 *149:B *169:A 1.07719e-05
8 *149:B *170:A 0.000181848
9 *149:B *171:A 0.000103267
10 *149:B *31:14 0.000238497
11 *149:B *37:10 0.000147567
12 *149:B *37:25 0.00045016
13 *149:B *44:20 0
14 *23:12 *146:A 0.00010326
15 *23:12 *152:B 0.000387432
16 *23:12 *39:16 0.000342502
17 *23:12 *40:14 0
18 *146:B *23:12 6.65398e-05
19 *21:10 *23:12 0.000274394
20 *21:34 *23:12 2.99773e-05
*RES
1 *146:Y *23:12 33.7464 
2 *23:12 *148:A 9.3 
3 *23:12 *149:B 33.4607 
*END

*D_NET *24 0.00218316
*CONN
*I *148:B I *D sky130_fd_sc_hd__nor2_1
*I *147:X O *D sky130_fd_sc_hd__and2_1
*CAP
1 *148:B 0.000368924
2 *147:X 0.000368924
3 *148:B *153:A 0.000364253
4 *148:B *169:A 0.000495618
5 *148:B *170:A 2.3704e-05
6 *148:B *171:A 6.12068e-05
7 *148:B *36:22 0.000310307
8 *148:B *44:20 4.00025e-05
9 *21:10 *148:B 0.000118352
10 *22:14 *148:B 3.18676e-05
*RES
1 *147:X *148:B 39.7964 
*END

*D_NET *25 0.0040896
*CONN
*I *152:A I *D sky130_fd_sc_hd__and2_1
*I *154:B I *D sky130_fd_sc_hd__xor2_1
*I *150:X O *D sky130_fd_sc_hd__or4_1
*CAP
1 *152:A 0.000284931
2 *154:B 0
3 *150:X 0.000472623
4 *25:12 0.000757554
5 *152:A *152:B 0.000308421
6 *152:A *154:A 5.52302e-05
7 *152:A *157:A 0.000183477
8 *152:A *36:22 0.000741228
9 *152:A *37:33 0.000139907
10 *152:A *39:16 3.30352e-05
11 *152:A *40:8 1.02821e-05
12 *152:A *44:20 0.000215348
13 *25:12 *154:A 3.27461e-05
14 *25:12 *29:16 0.000684507
15 *25:12 *29:20 1.52978e-05
16 *25:12 *41:14 0
17 *25:12 *41:25 0.000141181
18 *21:8 *152:A 1.38323e-05
*RES
1 *150:X *25:12 28.8893 
2 *25:12 *154:B 9.3 
3 *25:12 *152:A 20.1036 
*END

*D_NET *26 0.00193519
*CONN
*I *152:B I *D sky130_fd_sc_hd__and2_1
*I *151:Y O *D sky130_fd_sc_hd__o31ai_1
*CAP
1 *152:B 0.000234186
2 *151:Y 0.000234186
3 *152:B *39:16 0.000170248
4 *152:B *44:20 9.60939e-05
5 *152:A *152:B 0.000308421
6 *21:34 *152:B 0.000504628
7 *23:12 *152:B 0.000387432
*RES
1 *151:Y *152:B 37.1 
*END

*D_NET *27 0.0012675
*CONN
*I *153:A I *D sky130_fd_sc_hd__clkbuf_1
*I *152:X O *D sky130_fd_sc_hd__and2_1
*CAP
1 *153:A 0.000163817
2 *152:X 0.000163817
3 *153:A *171:A 9.88136e-05
4 *153:A *31:14 0.000344932
5 *153:A *44:20 0.000131863
6 *148:B *153:A 0.000364253
*RES
1 *152:X *153:A 34.4036 
*END

*D_NET *28 0.00321128
*CONN
*I *156:B I *D sky130_fd_sc_hd__nor2_1
*I *155:X O *D sky130_fd_sc_hd__and2_1
*CAP
1 *156:B 0.000525799
2 *155:X 0.000525799
3 *156:B *166:A 0.00125522
4 *156:B *168:A 0.000772887
5 *156:B *170:A 0.000123067
6 *156:B *171:A 0
7 out[2] *156:B 8.50795e-06
*RES
1 *155:X *156:B 44.9571 
*END

*D_NET *29 0.00904055
*CONN
*I *155:B I *D sky130_fd_sc_hd__and2_1
*I *157:A I *D sky130_fd_sc_hd__clkbuf_1
*I *143:B I *D sky130_fd_sc_hd__or4_2
*I *142:A2 I *D sky130_fd_sc_hd__o31a_1
*I *140:B I *D sky130_fd_sc_hd__nor2_1
*I *158:X O *D sky130_fd_sc_hd__dlymetal6s2s_1
*CAP
1 *155:B 0.000545077
2 *157:A 4.11803e-05
3 *143:B 3.06089e-05
4 *142:A2 9.56002e-05
5 *140:B 0.000168176
6 *158:X 0.000350368
7 *29:35 0.000778433
8 *29:20 0.000969431
9 *29:16 0.000937401
10 *29:10 0.00164263
11 *140:B *140:A 0.000271872
12 *142:A2 *142:A3 0.000233457
13 *142:A2 *168:A 0.000223592
14 *143:B *142:A3 0.000103267
15 *143:B *168:A 9.40167e-05
16 *155:B *37:10 0.000316532
17 *155:B *37:25 2.28598e-05
18 *157:A *40:8 9.69399e-05
19 *29:16 *150:A 0
20 *29:16 *40:14 0
21 *29:16 *40:36 0
22 *29:20 *154:A 5.19632e-05
23 *29:35 *140:A 0.000416155
24 *29:35 *166:A 5.52238e-05
25 *29:35 *169:A 0.000432877
26 *141:B *140:B 2.84109e-05
27 *149:B *155:B 0.000227532
28 *150:D *29:16 0
29 *152:A *157:A 0.000183477
30 *156:A *140:B 2.36643e-05
31 *25:12 *29:16 0.000684507
32 *25:12 *29:20 1.52978e-05
*RES
1 *158:X *29:10 19.5679 
2 *29:10 *29:16 15.6607 
3 *29:16 *29:20 7.05357 
4 *29:20 *140:B 13.1393 
5 *29:20 *29:35 16.9643 
6 *29:35 *142:A2 17.1929 
7 *29:35 *143:B 15.1393 
8 *29:16 *157:A 15.5679 
9 *29:10 *155:B 24.6214 
*END

*D_NET *30 0.00393354
*CONN
*I *166:A I *D sky130_fd_sc_hd__buf_2
*I *156:Y O *D sky130_fd_sc_hd__nor2_1
*CAP
1 *166:A 0.00064998
2 *156:Y 0.00064998
3 *166:A *170:A 0.000199007
4 *166:A *171:A 0
5 *166:A *37:25 0.00111727
6 *166:A *44:20 0
7 *149:B *166:A 6.8646e-06
8 *156:B *166:A 0.00125522
9 *29:35 *166:A 5.52238e-05
*RES
1 *156:Y *166:A 47.725 
*END

*D_NET *31 0.00387249
*CONN
*I *167:A I *D sky130_fd_sc_hd__buf_2
*I *141:Y O *D sky130_fd_sc_hd__xnor2_1
*CAP
1 *167:A 0
2 *141:Y 0.00107347
3 *31:14 0.00107347
4 *31:14 *171:A 0.000295144
5 *31:14 *38:25 0.000634391
6 *31:14 *44:20 0.000212597
7 *149:B *31:14 0.000238497
8 *153:A *31:14 0.000344932
*RES
1 *141:Y *31:14 42.1571 
2 *31:14 *167:A 9.3 
*END

*D_NET *32 0.00247392
*CONN
*I *168:A I *D sky130_fd_sc_hd__buf_2
*I *145:X O *D sky130_fd_sc_hd__clkbuf_1
*CAP
1 *168:A 0.000494782
2 *145:X 0.000494782
3 *168:A *142:A3 6.27855e-05
4 *168:A *171:A 0
5 *168:A *36:22 6.26559e-05
6 *168:A *38:25 0.000173804
7 out[3] *168:A 6.27457e-05
8 *142:A2 *168:A 0.000223592
9 *143:B *168:A 9.40167e-05
10 *156:B *168:A 0.000772887
11 *22:14 *168:A 3.18676e-05
*RES
1 *145:X *168:A 41.9214 
*END

*D_NET *33 0.00246506
*CONN
*I *169:A I *D sky130_fd_sc_hd__buf_2
*I *148:Y O *D sky130_fd_sc_hd__nor2_1
*CAP
1 *169:A 0.000386523
2 *148:Y 0.000386523
3 *169:A *140:A 0.000136951
4 *169:A *170:A 0.000122341
5 *169:A *44:20 0.000290286
6 *148:B *169:A 0.000495618
7 *149:B *169:A 1.07719e-05
8 *156:A *169:A 9.56035e-05
9 *21:10 *169:A 6.42242e-05
10 *21:34 *169:A 4.33438e-05
11 *29:35 *169:A 0.000432877
*RES
1 *148:Y *169:A 39.2964 
*END

*D_NET *34 0.00530053
*CONN
*I *170:A I *D sky130_fd_sc_hd__buf_2
*I *149:Y O *D sky130_fd_sc_hd__xnor2_1
*CAP
1 *170:A 0.00221077
2 *149:Y 0.00221077
3 *170:A *171:A 4.32309e-05
4 *170:A *37:25 0.00017522
5 *170:A *44:20 1.0562e-05
6 *148:B *170:A 2.3704e-05
7 *149:B *170:A 0.000181848
8 *156:B *170:A 0.000123067
9 *166:A *170:A 0.000199007
10 *169:A *170:A 0.000122341
*RES
1 *149:Y *170:A 45.7193 
*END

*D_NET *35 0.00281327
*CONN
*I *171:A I *D sky130_fd_sc_hd__buf_2
*I *153:X O *D sky130_fd_sc_hd__clkbuf_1
*CAP
1 *171:A 0.000730202
2 *153:X 0.000730202
3 *171:A *142:A1 0.00012401
4 *171:A *36:22 0.000200671
5 *171:A *37:25 0.000140658
6 *171:A *37:33 0.000168939
7 out[5] *171:A 0.000116928
8 *146:B *171:A 0
9 *148:B *171:A 6.12068e-05
10 *149:B *171:A 0.000103267
11 *153:A *171:A 9.88136e-05
12 *156:B *171:A 0
13 *166:A *171:A 0
14 *168:A *171:A 0
15 *170:A *171:A 4.32309e-05
16 *21:10 *171:A 0
17 *31:14 *171:A 0.000295144
*RES
1 *153:X *171:A 46.5464 
*END

*D_NET *36 0.00391024
*CONN
*I *172:A I *D sky130_fd_sc_hd__clkbuf_4
*I *154:X O *D sky130_fd_sc_hd__xor2_1
*CAP
1 *172:A 0
2 *154:X 0.000885993
3 *36:22 0.000885993
4 *36:22 *142:A1 0.000309169
5 *36:22 *37:33 0.000159689
6 out[5] *36:22 5.86388e-05
7 *148:B *36:22 0.000310307
8 *152:A *36:22 0.000741228
9 *168:A *36:22 6.26559e-05
10 *171:A *36:22 0.000200671
11 *20:14 *36:22 0.000117044
12 *21:8 *36:22 0.000178847
*RES
1 *154:X *36:22 49.6214 
2 *36:22 *172:A 9.3 
*END

*D_NET *37 0.00934612
*CONN
*I *143:A I *D sky130_fd_sc_hd__or4_2
*I *140:A I *D sky130_fd_sc_hd__nor2_1
*I *142:A1 I *D sky130_fd_sc_hd__o31a_1
*I *155:A I *D sky130_fd_sc_hd__and2_1
*I *159:X O *D sky130_fd_sc_hd__buf_1
*CAP
1 *143:A 6.69118e-05
2 *140:A 0.000215883
3 *142:A1 0.000271665
4 *155:A 0
5 *159:X 0.00078091
6 *37:33 0.000626331
7 *37:25 0.000631393
8 *37:10 0.00120661
9 *143:A *39:16 6.86693e-05
10 *37:25 *39:16 0
11 *37:33 *39:16 9.22103e-06
12 *140:B *140:A 0.000271872
13 *149:B *37:10 0.000147567
14 *149:B *37:25 0.00045016
15 *152:A *37:33 0.000139907
16 *155:B *37:10 0.000316532
17 *155:B *37:25 2.28598e-05
18 *156:A *140:A 0.00117388
19 *166:A *37:25 0.00111727
20 *169:A *140:A 0.000136951
21 *170:A *37:25 0.00017522
22 *171:A *142:A1 0.00012401
23 *171:A *37:25 0.000140658
24 *171:A *37:33 0.000168939
25 *21:8 *143:A 1.39726e-05
26 *21:8 *37:33 0.00018372
27 *29:35 *140:A 0.000416155
28 *36:22 *142:A1 0.000309169
29 *36:22 *37:33 0.000159689
*RES
1 *159:X *37:10 23.5321 
2 *37:10 *155:A 9.3 
3 *37:10 *37:25 24.875 
4 *37:25 *37:33 9.25 
5 *37:33 *142:A1 18.8893 
6 *37:33 *140:A 25.0143 
7 *37:25 *143:A 10.6571 
*END

*D_NET *38 0.00567638
*CONN
*I *142:A3 I *D sky130_fd_sc_hd__o31a_1
*I *143:C I *D sky130_fd_sc_hd__or4_2
*I *141:A I *D sky130_fd_sc_hd__xnor2_1
*I *160:X O *D sky130_fd_sc_hd__buf_1
*CAP
1 *142:A3 0.000186957
2 *143:C 0
3 *141:A 0
4 *160:X 0.000541257
5 *38:25 0.00123425
6 *38:14 0.00158855
7 *142:A3 *142:B1 0.000400764
8 *38:14 *150:C 0.000116183
9 *38:25 *142:B1 1.41029e-05
10 *142:A2 *142:A3 0.000233457
11 *143:B *142:A3 0.000103267
12 *150:D *38:14 1.00375e-05
13 *160:A *38:14 6.05161e-06
14 *161:A *38:14 0
15 *168:A *142:A3 6.27855e-05
16 *168:A *38:25 0.000173804
17 *20:14 *38:14 0.000370533
18 *31:14 *38:25 0.000634391
*RES
1 *160:X *38:14 29.425 
2 *38:14 *141:A 9.3 
3 *38:14 *38:25 23.3036 
4 *38:25 *143:C 13.8 
5 *38:25 *142:A3 20.4607 
*END

*D_NET *39 0.00529748
*CONN
*I *143:D I *D sky130_fd_sc_hd__or4_2
*I *142:B1 I *D sky130_fd_sc_hd__o31a_1
*I *161:X O *D sky130_fd_sc_hd__clkbuf_1
*CAP
1 *143:D 0
2 *142:B1 0.000227026
3 *161:X 0.00143205
4 *39:16 0.00165908
5 *39:16 *151:A1 0.00040381
6 *39:16 *151:B1 0.000338507
7 *39:16 *40:36 0
8 *39:16 *44:20 0.000177815
9 out[4] *142:B1 2.06507e-05
10 *142:A3 *142:B1 0.000400764
11 *143:A *39:16 6.86693e-05
12 *152:A *39:16 3.30352e-05
13 *152:B *39:16 0.000170248
14 *23:12 *39:16 0.000342502
15 *37:25 *39:16 0
16 *37:33 *39:16 9.22103e-06
17 *38:25 *142:B1 1.41029e-05
*RES
1 *161:X *39:16 39.6571 
2 *39:16 *142:B1 24.1214 
3 *39:16 *143:D 9.3 
*END

*D_NET *40 0.00721589
*CONN
*I *150:A I *D sky130_fd_sc_hd__or4_1
*I *151:A1 I *D sky130_fd_sc_hd__o31ai_1
*I *147:A I *D sky130_fd_sc_hd__and2_1
*I *146:A I *D sky130_fd_sc_hd__nor2_1
*I *162:X O *D sky130_fd_sc_hd__buf_1
*CAP
1 *150:A 0.000395349
2 *151:A1 0.000229727
3 *147:A 0.000238469
4 *146:A 7.6461e-05
5 *162:X 0.000563172
6 *40:36 0.000990894
7 *40:14 0.00104055
8 *40:8 0.00165461
9 *150:A *41:25 0.000262044
10 *151:A1 *151:A2 1.96517e-05
11 *151:A1 *151:B1 0.000449546
12 *40:8 *154:A 4.87953e-05
13 *146:B *146:A 2.00751e-05
14 *147:B *147:A 0.000272371
15 *152:A *40:8 1.02821e-05
16 *157:A *40:8 9.69399e-05
17 *21:36 *151:A1 3.14078e-05
18 *22:14 *147:A 8.70693e-05
19 *22:14 *40:14 0.0002214
20 *23:12 *146:A 0.00010326
21 *23:12 *40:14 0
22 *29:16 *150:A 0
23 *29:16 *40:14 0
24 *29:16 *40:36 0
25 *39:16 *151:A1 0.00040381
26 *39:16 *40:36 0
*RES
1 *162:X *40:8 20.0857 
2 *40:8 *40:14 16.9464 
3 *40:14 *146:A 20.2464 
4 *40:14 *147:A 13.9607 
5 *40:8 *40:36 6.19643 
6 *40:36 *151:A1 20.5143 
7 *40:36 *150:A 21.6036 
*END

*D_NET *41 0.00547613
*CONN
*I *149:A I *D sky130_fd_sc_hd__xnor2_1
*I *151:A2 I *D sky130_fd_sc_hd__o31ai_1
*I *150:B I *D sky130_fd_sc_hd__or4_1
*I *163:X O *D sky130_fd_sc_hd__buf_1
*CAP
1 *149:A 0.000224164
2 *151:A2 9.61112e-05
3 *150:B 0
4 *163:X 0.00049934
5 *41:25 0.00089363
6 *41:14 0.0010727
7 *149:A *44:20 0.000241056
8 *151:A2 *44:20 7.92975e-05
9 *41:14 *150:C 4.27968e-05
10 *41:14 *42:8 0.000282821
11 *141:B *41:14 0.000442078
12 *150:A *41:25 0.000262044
13 *150:D *41:14 0.000103267
14 *151:A1 *151:A2 1.96517e-05
15 *20:14 *41:14 9.71197e-05
16 *21:34 *151:A2 3.34295e-05
17 *22:14 *41:14 0.000945443
18 *25:12 *41:14 0
19 *25:12 *41:25 0.000141181
*RES
1 *163:X *41:14 34.5857 
2 *41:14 *150:B 9.3 
3 *41:14 *41:25 14.9107 
4 *41:25 *151:A2 16.0768 
5 *41:25 *149:A 19.3893 
*END

*D_NET *42 0.00549022
*CONN
*I *150:C I *D sky130_fd_sc_hd__or4_1
*I *151:B1 I *D sky130_fd_sc_hd__o31ai_1
*I *164:X O *D sky130_fd_sc_hd__buf_1
*CAP
1 *150:C 0.000140382
2 *151:B1 0.000315914
3 *164:X 0.000567147
4 *42:8 0.00102344
5 *42:8 *154:A 0
6 *141:B *42:8 0.000443785
7 *150:D *150:C 0.000153047
8 *151:A1 *151:B1 0.000449546
9 *161:A *151:B1 0.000183027
10 *163:A *42:8 0
11 *20:14 *42:8 0.000951009
12 *21:36 *151:B1 0.000429654
13 *22:14 *42:8 5.29554e-05
14 *38:14 *150:C 0.000116183
15 *39:16 *151:B1 0.000338507
16 *41:14 *150:C 4.27968e-05
17 *41:14 *42:8 0.000282821
*RES
1 *164:X *42:8 32.1393 
2 *42:8 *151:B1 24.7464 
3 *42:8 *150:C 17.6036 
*END

*D_NET *43 0.00194229
*CONN
*I *154:A I *D sky130_fd_sc_hd__xor2_1
*I *165:X O *D sky130_fd_sc_hd__clkbuf_1
*CAP
1 *154:A 0.00087678
2 *165:X 0.00087678
3 *152:A *154:A 5.52302e-05
4 *25:12 *154:A 3.27461e-05
5 *29:20 *154:A 5.19632e-05
6 *40:8 *154:A 4.87953e-05
7 *42:8 *154:A 0
*RES
1 *165:X *154:A 42.3857 
*END

*D_NET *44 0.00394983
*CONN
*I *173:A I *D sky130_fd_sc_hd__buf_2
*I *157:X O *D sky130_fd_sc_hd__clkbuf_1
*CAP
1 *173:A 0
2 *157:X 0.000994201
3 *44:20 0.000994201
4 *148:B *44:20 4.00025e-05
5 *149:A *44:20 0.000241056
6 *149:B *44:20 0
7 *151:A2 *44:20 7.92975e-05
8 *152:A *44:20 0.000215348
9 *152:B *44:20 9.60939e-05
10 *153:A *44:20 0.000131863
11 *166:A *44:20 0
12 *169:A *44:20 0.000290286
13 *170:A *44:20 1.0562e-05
14 *21:34 *44:20 0.000466506
15 *31:14 *44:20 0.000212597
16 *39:16 *44:20 0.000177815
*RES
1 *157:X *44:20 43.1393 
2 *44:20 *173:A 9.3 
*END
