*SPEF "ieee 1481-1999"
*DESIGN "twos_complement"
*DATE "23:20:53 Saturday April 26, 2025"
*VENDOR "The OpenROAD Project"
*PROGRAM "OpenROAD"
*VERSION "b16bda7e82721d10566ff7e2b68f1ff0be9f9e38"
*DESIGN_FLOW "NAME_SCOPE LOCAL" "PIN_CAP NONE"
*DIVIDER /
*DELIMITER :
*BUS_DELIMITER []
*T_UNIT 1 NS
*C_UNIT 1 PF
*R_UNIT 1 OHM
*L_UNIT 1 HENRY

*NAME_MAP
*3 in[0]
*4 in[1]
*5 in[2]
*6 in[3]
*7 in[4]
*8 in[5]
*9 in[6]
*10 in[7]
*11 out[0]
*12 out[1]
*13 out[2]
*14 out[3]
*15 out[4]
*16 out[5]
*17 out[6]
*18 out[7]
*19 _00_
*20 _01_
*21 _02_
*22 _03_
*23 _04_
*24 _05_
*25 _06_
*26 _07_
*27 _08_
*28 _09_
*29 net1
*30 net10
*31 net11
*32 net12
*33 net13
*34 net14
*35 net15
*36 net16
*37 net2
*38 net3
*39 net4
*40 net5
*41 net6
*42 net7
*43 net8
*44 net9
*45 FILLER_0_0_21
*46 FILLER_0_0_27
*47 FILLER_0_0_29
*48 FILLER_0_0_37
*49 FILLER_0_0_9
*50 FILLER_0_10_18
*51 FILLER_0_10_26
*52 FILLER_0_10_29
*53 FILLER_0_10_6
*54 FILLER_0_11_14
*55 FILLER_0_11_26
*56 FILLER_0_11_3
*57 FILLER_0_11_34
*58 FILLER_0_11_45
*59 FILLER_0_12_21
*60 FILLER_0_12_27
*61 FILLER_0_12_29
*62 FILLER_0_12_37
*63 FILLER_0_12_9
*64 FILLER_0_1_15
*65 FILLER_0_1_27
*66 FILLER_0_1_3
*67 FILLER_0_1_39
*68 FILLER_0_1_47
*69 FILLER_0_2_19
*70 FILLER_0_2_27
*71 FILLER_0_2_3
*72 FILLER_0_2_36
*73 FILLER_0_3_21
*74 FILLER_0_3_33
*75 FILLER_0_3_6
*76 FILLER_0_4_11
*77 FILLER_0_4_18
*78 FILLER_0_4_26
*79 FILLER_0_4_29
*80 FILLER_0_4_3
*81 FILLER_0_4_46
*82 FILLER_0_5_12
*83 FILLER_0_5_20
*84 FILLER_0_5_29
*85 FILLER_0_5_42
*86 FILLER_0_6_15
*87 FILLER_0_6_27
*88 FILLER_0_6_29
*89 FILLER_0_6_3
*90 FILLER_0_6_41
*91 FILLER_0_6_47
*92 FILLER_0_7_15
*93 FILLER_0_7_27
*94 FILLER_0_7_3
*95 FILLER_0_7_39
*96 FILLER_0_7_45
*97 FILLER_0_8_18
*98 FILLER_0_8_26
*99 FILLER_0_8_35
*100 FILLER_0_8_43
*101 FILLER_0_8_6
*102 FILLER_0_9_15
*103 FILLER_0_9_19
*104 FILLER_0_9_3
*105 FILLER_0_9_31
*106 FILLER_0_9_42
*107 PHY_EDGE_ROW_0_Left_13
*108 PHY_EDGE_ROW_0_Right_0
*109 PHY_EDGE_ROW_10_Left_23
*110 PHY_EDGE_ROW_10_Right_10
*111 PHY_EDGE_ROW_11_Left_24
*112 PHY_EDGE_ROW_11_Right_11
*113 PHY_EDGE_ROW_12_Left_25
*114 PHY_EDGE_ROW_12_Right_12
*115 PHY_EDGE_ROW_1_Left_14
*116 PHY_EDGE_ROW_1_Right_1
*117 PHY_EDGE_ROW_2_Left_15
*118 PHY_EDGE_ROW_2_Right_2
*119 PHY_EDGE_ROW_3_Left_16
*120 PHY_EDGE_ROW_3_Right_3
*121 PHY_EDGE_ROW_4_Left_17
*122 PHY_EDGE_ROW_4_Right_4
*123 PHY_EDGE_ROW_5_Left_18
*124 PHY_EDGE_ROW_5_Right_5
*125 PHY_EDGE_ROW_6_Left_19
*126 PHY_EDGE_ROW_6_Right_6
*127 PHY_EDGE_ROW_7_Left_20
*128 PHY_EDGE_ROW_7_Right_7
*129 PHY_EDGE_ROW_8_Left_21
*130 PHY_EDGE_ROW_8_Right_8
*131 PHY_EDGE_ROW_9_Left_22
*132 PHY_EDGE_ROW_9_Right_9
*133 TAP_TAPCELL_ROW_0_26
*134 TAP_TAPCELL_ROW_10_31
*135 TAP_TAPCELL_ROW_12_32
*136 TAP_TAPCELL_ROW_2_27
*137 TAP_TAPCELL_ROW_4_28
*138 TAP_TAPCELL_ROW_6_29
*139 TAP_TAPCELL_ROW_8_30
*140 _10_
*141 _11_
*142 _12_
*143 _13_
*144 _14_
*145 _15_
*146 _16_
*147 _17_
*148 _18_
*149 _19_
*150 _20_
*151 _21_
*152 _22_
*153 _23_
*154 _24_
*155 _25_
*156 _26_
*157 _27_
*158 input1
*159 input2
*160 input3
*161 input4
*162 input5
*163 input6
*164 input7
*165 input8
*166 output10
*167 output11
*168 output12
*169 output13
*170 output14
*171 output15
*172 output16
*173 output9

*PORTS
in[0] I
in[1] I
in[2] I
in[3] I
in[4] I
in[5] I
in[6] I
in[7] I
out[0] O
out[1] O
out[2] O
out[3] O
out[4] O
out[5] O
out[6] O
out[7] O

*D_NET *3 0.00101438
*CONN
*P in[0] I
*I *158:A I *D sky130_fd_sc_hd__buf_1
*CAP
1 in[0] 0.000507191
2 *158:A 0.000507191
3 *158:A *159:A 0
*RES
1 in[0] *158:A 10.2018 
*END

*D_NET *4 0.000747554
*CONN
*P in[1] I
*I *159:A I *D sky130_fd_sc_hd__buf_1
*CAP
1 in[1] 0.000363223
2 *159:A 0.000363223
3 *159:A *160:A 0
4 *159:A *29:10 2.11084e-05
5 *158:A *159:A 0
*RES
1 in[1] *159:A 8.2293 
*END

*D_NET *5 0.000531065
*CONN
*P in[2] I
*I *160:A I *D sky130_fd_sc_hd__buf_1
*CAP
1 in[2] 0.000265532
2 *160:A 0.000265532
3 *160:A *161:A 0
4 *159:A *160:A 0
*RES
1 in[2] *160:A 6.8343 
*END

*D_NET *6 0.000638333
*CONN
*P in[3] I
*I *161:A I *D sky130_fd_sc_hd__buf_1
*CAP
1 in[3] 0.000319167
2 *161:A 0.000319167
3 *161:A *148:A 0
4 *161:A *162:A 0
5 *160:A *161:A 0
*RES
1 in[3] *161:A 7.8543 
*END

*D_NET *7 0.000829466
*CONN
*P in[4] I
*I *162:A I *D sky130_fd_sc_hd__buf_1
*CAP
1 in[4] 0.00039722
2 *162:A 0.00039722
3 *162:A *144:B 3.50266e-05
4 *162:A *149:B 0
5 *162:A *163:A 0
6 *161:A *162:A 0
*RES
1 in[4] *162:A 9.22043 
*END

*D_NET *8 0.000666425
*CONN
*P in[5] I
*I *163:A I *D sky130_fd_sc_hd__buf_1
*CAP
1 in[5] 0.000333212
2 *163:A 0.000333212
3 *163:A *149:B 0
4 *163:A *164:A 0
5 *162:A *163:A 0
*RES
1 in[5] *163:A 8.1093 
*END

*D_NET *9 0.000523624
*CONN
*P in[6] I
*I *164:A I *D sky130_fd_sc_hd__clkbuf_1
*CAP
1 in[6] 0.000261812
2 *164:A 0.000261812
3 *164:A *165:A 0
4 *163:A *164:A 0
*RES
1 in[6] *164:A 6.8343 
*END

*D_NET *10 0.00115517
*CONN
*P in[7] I
*I *165:A I *D sky130_fd_sc_hd__buf_1
*CAP
1 in[7] 0.000577586
2 *165:A 0.000577586
3 *164:A *165:A 0
*RES
1 in[7] *165:A 10.6316 
*END

*D_NET *11 0.00109227
*CONN
*P out[0] O
*I *173:X O *D sky130_fd_sc_hd__buf_2
*CAP
1 out[0] 0.000546133
2 *173:X 0.000546133
3 out[0] out[1] 0
*RES
1 *173:X out[0] 9.66983 
*END

*D_NET *12 0.000411515
*CONN
*P out[1] O
*I *166:X O *D sky130_fd_sc_hd__buf_2
*CAP
1 out[1] 0.000205757
2 *166:X 0.000205757
3 out[1] out[2] 0
4 out[1] *29:10 0
5 out[0] out[1] 0
*RES
1 *166:X out[1] 4.84677 
*END

*D_NET *13 0.000411283
*CONN
*P out[2] O
*I *167:X O *D sky130_fd_sc_hd__buf_2
*CAP
1 out[2] 0.000201307
2 *167:X 0.000201307
3 out[2] out[3] 0
4 out[2] *156:B 8.66976e-06
5 out[1] out[2] 0
*RES
1 *167:X out[2] 4.84677 
*END

*D_NET *14 0.000560295
*CONN
*P out[3] O
*I *168:X O *D sky130_fd_sc_hd__buf_2
*CAP
1 out[3] 0.000251127
2 *168:X 0.000251127
3 out[3] out[4] 0
4 out[3] *169:A 5.80413e-05
5 out[2] out[3] 0
*RES
1 *168:X out[3] 5.86677 
*END

*D_NET *15 0.000414069
*CONN
*P out[4] O
*I *169:X O *D sky130_fd_sc_hd__buf_2
*CAP
1 out[4] 0.000203746
2 *169:X 0.000203746
3 out[4] out[5] 0
4 out[4] *172:A 6.57653e-06
5 out[3] out[4] 0
*RES
1 *169:X out[4] 4.84677 
*END

*D_NET *16 0.00054695
*CONN
*P out[5] O
*I *170:X O *D sky130_fd_sc_hd__buf_2
*CAP
1 out[5] 0.000251457
2 *170:X 0.000251457
3 out[5] out[6] 0
4 out[5] *172:A 4.40358e-05
5 out[4] out[5] 0
*RES
1 *170:X out[5] 5.86677 
*END

*D_NET *17 0.000710986
*CONN
*P out[6] O
*I *171:X O *D sky130_fd_sc_hd__buf_2
*CAP
1 out[6] 0.000355493
2 *171:X 0.000355493
3 out[6] out[7] 0
4 out[5] out[6] 0
*RES
1 *171:X out[6] 5.19637 
*END

*D_NET *18 0.000971234
*CONN
*P out[7] O
*I *172:X O *D sky130_fd_sc_hd__clkbuf_4
*CAP
1 out[7] 0.000485617
2 *172:X 0.000485617
3 out[6] out[7] 0
*RES
1 *172:X out[7] 10.1435 
*END

*D_NET *19 0.00613959
*CONN
*I *156:A I *D sky130_fd_sc_hd__nor2_1
*I *141:B I *D sky130_fd_sc_hd__xnor2_1
*I *140:Y O *D sky130_fd_sc_hd__nor2_1
*CAP
1 *156:A 8.12728e-05
2 *141:B 0.00106718
3 *140:Y 0
4 *19:6 0.00114845
5 *141:B *143:A 0.00039782
6 *141:B *143:B 8.65961e-05
7 *141:B *143:C 0.000546157
8 *141:B *146:A 0.00015829
9 *141:B *147:A 0.000162325
10 *141:B *156:B 0.000949553
11 *141:B *167:A 0.000123589
12 *141:B *170:A 1.14169e-05
13 *141:B *172:A 0.000282229
14 *141:B *173:A 0.000236923
15 *141:B *21:10 4.99619e-05
16 *141:B *37:18 0.000477521
17 *156:A *156:B 0.000253956
18 *156:A *173:A 2.04763e-05
19 *156:A *37:12 6.5319e-05
20 *156:A *37:18 2.05573e-05
*RES
1 *140:Y *19:6 3.6 
2 *19:6 *141:B 31.515 
3 *19:6 *156:A 6.51 
*END

*D_NET *20 0.00521051
*CONN
*I *144:A_N I *D sky130_fd_sc_hd__and2b_1
*I *142:X O *D sky130_fd_sc_hd__o31a_1
*CAP
1 *144:A_N 0.00215246
2 *142:X 0.00215246
3 *144:A_N *142:B1 0.000295388
4 *144:A_N *143:D 0.000116253
5 *144:A_N *149:B 6.16226e-06
6 *144:A_N *168:A 0.000121811
7 *144:A_N *173:A 0.000148404
8 *144:A_N *25:10 0.000108185
9 *144:A_N *40:23 0.000109394
*RES
1 *142:X *144:A_N 16.3731 
*END

*D_NET *21 0.00533502
*CONN
*I *150:D I *D sky130_fd_sc_hd__or4_1
*I *146:B I *D sky130_fd_sc_hd__nor2_1
*I *147:B I *D sky130_fd_sc_hd__and2_1
*I *151:A3 I *D sky130_fd_sc_hd__o31ai_1
*I *144:B I *D sky130_fd_sc_hd__and2b_1
*I *143:X O *D sky130_fd_sc_hd__or4_2
*CAP
1 *150:D 7.18827e-05
2 *146:B 5.67836e-05
3 *147:B 9.43441e-05
4 *151:A3 0
5 *144:B 0.000315657
6 *143:X 0.00029448
7 *21:38 0.000334318
8 *21:34 0.000419351
9 *21:14 0.000394438
10 *21:10 0.00053754
11 *144:B *152:B 0.000346433
12 *144:B *40:10 0.00052799
13 *146:B *146:A 4.77719e-05
14 *146:B *23:8 3.93162e-05
15 *147:B *29:14 0.00035825
16 *147:B *37:18 0.00035825
17 *150:D *150:B 6.99988e-05
18 *150:D *40:23 5.13029e-05
19 *21:10 *154:A 0
20 *21:10 *41:23 0.000200852
21 *21:10 *42:10 0
22 *21:14 *40:10 0.000124007
23 *21:14 *40:23 2.05056e-05
24 *21:34 *150:B 0.000204195
25 *21:34 *154:A 0
26 *21:34 *40:23 0.000146464
27 *21:34 *41:23 2.01214e-05
28 *21:38 *23:8 0.000215775
29 *141:B *21:10 4.99619e-05
30 *162:A *144:B 3.50266e-05
*RES
1 *143:X *21:10 9.255 
2 *21:10 *21:14 3.485 
3 *21:14 *144:B 8.74 
4 *21:14 *151:A3 1.6 
5 *21:10 *21:34 4.695 
6 *21:34 *21:38 5.555 
7 *21:38 *147:B 9.785 
8 *21:38 *146:B 2.74 
9 *21:34 *150:D 5.235 
*END

*D_NET *22 0.0017678
*CONN
*I *145:A I *D sky130_fd_sc_hd__clkbuf_1
*I *144:X O *D sky130_fd_sc_hd__and2b_1
*CAP
1 *145:A 0.000691577
2 *144:X 0.000691577
3 *145:A *148:A 0.000176621
4 *145:A *149:B 0.000208025
*RES
1 *144:X *145:A 20.175 
*END

*D_NET *23 0.00515173
*CONN
*I *148:A I *D sky130_fd_sc_hd__nor2_1
*I *149:B I *D sky130_fd_sc_hd__xnor2_1
*I *146:Y O *D sky130_fd_sc_hd__nor2_1
*CAP
1 *148:A 0.000419141
2 *149:B 0.000550157
3 *146:Y 0.00117165
4 *23:8 0.00214094
5 *149:B *149:A 0.000141599
6 *149:B *170:A 0
7 *149:B *38:12 0
8 *23:8 *146:A 8.23457e-05
9 *144:A_N *149:B 6.16226e-06
10 *145:A *148:A 0.000176621
11 *145:A *149:B 0.000208025
12 *146:B *23:8 3.93162e-05
13 *161:A *148:A 0
14 *162:A *149:B 0
15 *163:A *149:B 0
16 *21:38 *23:8 0.000215775
*RES
1 *146:Y *23:8 16.47 
2 *23:8 *149:B 14.415 
3 *23:8 *148:A 10.83 
*END

*D_NET *24 0.000957348
*CONN
*I *148:B I *D sky130_fd_sc_hd__nor2_1
*I *147:X O *D sky130_fd_sc_hd__and2_1
*CAP
1 *148:B 0.000330477
2 *147:X 0.000330477
3 *148:B *169:A 0.000296394
*RES
1 *147:X *148:B 9.86 
*END

*D_NET *25 0.00286301
*CONN
*I *154:B I *D sky130_fd_sc_hd__xor2_1
*I *152:A I *D sky130_fd_sc_hd__and2_1
*I *150:X O *D sky130_fd_sc_hd__or4_1
*CAP
1 *154:B 0
2 *152:A 0.000609887
3 *150:X 0.000204678
4 *25:10 0.000814565
5 *152:A *143:D 0.000164686
6 *152:A *153:A 4.58975e-05
7 *152:A *29:14 9.24127e-05
8 *25:10 *143:D 0.000484864
9 *25:10 *168:A 5.83121e-06
10 *25:10 *29:14 0.000275375
11 *25:10 *39:12 4.82863e-05
12 *25:10 *40:34 8.34281e-06
13 *144:A_N *25:10 0.000108185
*RES
1 *150:X *25:10 10.11 
2 *25:10 *152:A 13.53 
3 *25:10 *154:B 3.6 
*END

*D_NET *26 0.00109745
*CONN
*I *152:B I *D sky130_fd_sc_hd__and2_1
*I *151:Y O *D sky130_fd_sc_hd__o31ai_1
*CAP
1 *152:B 0.000305052
2 *151:Y 0.000305052
3 *152:B *167:A 0
4 *152:B *38:12 0.000140912
5 *144:B *152:B 0.000346433
*RES
1 *151:Y *152:B 12.045 
*END

*D_NET *27 0.000623699
*CONN
*I *153:A I *D sky130_fd_sc_hd__clkbuf_1
*I *152:X O *D sky130_fd_sc_hd__and2_1
*CAP
1 *153:A 0.000186994
2 *152:X 0.000186994
3 *153:A *167:A 0.000116853
4 *153:A *170:A 8.696e-05
5 *153:A *38:12 0
6 *152:A *153:A 4.58975e-05
*RES
1 *152:X *153:A 10.515 
*END

*D_NET *28 0.00315969
*CONN
*I *156:B I *D sky130_fd_sc_hd__nor2_1
*I *155:X O *D sky130_fd_sc_hd__and2_1
*CAP
1 *156:B 0.000518208
2 *155:X 0.000518208
3 *156:B *155:A 2.75229e-05
4 *156:B *169:A 0.000651202
5 *156:B *172:A 7.06865e-05
6 *156:B *173:A 0.000161687
7 out[2] *156:B 8.66976e-06
8 *141:B *156:B 0.000949553
9 *156:A *156:B 0.000253956
*RES
1 *155:X *156:B 22.53 
*END

*D_NET *29 0.00662148
*CONN
*I *142:A2 I *D sky130_fd_sc_hd__o31a_1
*I *140:B I *D sky130_fd_sc_hd__nor2_1
*I *155:B I *D sky130_fd_sc_hd__and2_1
*I *157:A I *D sky130_fd_sc_hd__clkbuf_1
*I *143:B I *D sky130_fd_sc_hd__or4_2
*I *158:X O *D sky130_fd_sc_hd__buf_1
*CAP
1 *142:A2 0
2 *140:B 0.000118999
3 *155:B 0.000112022
4 *157:A 9.5087e-05
5 *143:B 0.000141146
6 *158:X 0.000766558
7 *29:16 0.000289166
8 *29:14 0.000503301
9 *29:12 0.000510113
10 *29:10 0.000819325
11 *140:B *140:A 8.52883e-05
12 *140:B *167:A 6.93584e-05
13 *143:B *143:A 3.13584e-05
14 *143:B *143:D 6.85242e-05
15 *143:B *171:A 7.06865e-05
16 *155:B *155:A 0.000120655
17 *157:A *170:A 0.00019391
18 *29:10 *173:A 2.60986e-05
19 *29:10 *37:10 0.000490352
20 *29:10 *37:12 9.50342e-06
21 *29:12 *142:A3 9.54399e-05
22 *29:12 *142:B1 1.44259e-05
23 *29:12 *168:A 2.05583e-05
24 *29:12 *37:12 0.000185411
25 *29:14 *142:B1 8.09021e-06
26 *29:14 *143:A 1.71013e-05
27 *29:14 *143:D 1.23244e-05
28 *29:14 *168:A 0.000210859
29 *29:14 *173:A 0.000129673
30 *29:14 *37:12 2.14129e-05
31 *29:14 *37:18 0.000395189
32 *29:16 *143:A 9.05377e-05
33 *29:16 *143:D 6.5265e-05
34 out[1] *29:10 0
35 *141:B *143:B 8.65961e-05
36 *147:B *29:14 0.00035825
37 *152:A *29:14 9.24127e-05
38 *159:A *29:10 2.11084e-05
39 *25:10 *29:14 0.000275375
*RES
1 *158:X *29:10 17.49 
2 *29:10 *29:12 2.145 
3 *29:12 *29:14 12.6 
4 *29:14 *29:16 1.89 
5 *29:16 *143:B 6.585 
6 *29:16 *157:A 5.43 
7 *29:14 *155:B 5.43 
8 *29:12 *140:B 5.79 
9 *29:10 *142:A2 3.6 
*END

*D_NET *30 0.000247873
*CONN
*I *166:A I *D sky130_fd_sc_hd__buf_2
*I *156:Y O *D sky130_fd_sc_hd__nor2_1
*CAP
1 *166:A 9.93773e-05
2 *156:Y 9.93773e-05
3 *166:A *173:A 4.91189e-05
*RES
1 *156:Y *166:A 9.03 
*END

*D_NET *31 0.00387825
*CONN
*I *167:A I *D sky130_fd_sc_hd__buf_2
*I *141:Y O *D sky130_fd_sc_hd__xnor2_1
*CAP
1 *167:A 0.00129204
2 *141:Y 0.00129204
3 *167:A *140:A 8.51862e-05
4 *167:A *142:A3 0.000201873
5 *167:A *143:C 0.000125264
6 *167:A *150:B 0
7 *167:A *150:C 0.000298184
8 *167:A *38:12 0
9 *167:A *42:10 0.00027386
10 *140:B *167:A 6.93584e-05
11 *141:B *167:A 0.000123589
12 *152:B *167:A 0
13 *153:A *167:A 0.000116853
*RES
1 *141:Y *167:A 32.4 
*END

*D_NET *32 0.00295499
*CONN
*I *168:A I *D sky130_fd_sc_hd__buf_2
*I *145:X O *D sky130_fd_sc_hd__clkbuf_1
*CAP
1 *168:A 0.000898648
2 *145:X 0.000898648
3 *168:A *142:A3 9.37731e-05
4 *168:A *142:B1 0.000512738
5 *168:A *40:34 0.000192125
6 *144:A_N *168:A 0.000121811
7 *25:10 *168:A 5.83121e-06
8 *29:12 *168:A 2.05583e-05
9 *29:14 *168:A 0.000210859
*RES
1 *145:X *168:A 24.075 
*END

*D_NET *33 0.00312004
*CONN
*I *169:A I *D sky130_fd_sc_hd__buf_2
*I *148:Y O *D sky130_fd_sc_hd__nor2_1
*CAP
1 *169:A 0.0010572
2 *148:Y 0.0010572
3 out[3] *169:A 5.80413e-05
4 *148:B *169:A 0.000296394
5 *156:B *169:A 0.000651202
*RES
1 *148:Y *169:A 23.775 
*END

*D_NET *34 0.00254489
*CONN
*I *170:A I *D sky130_fd_sc_hd__buf_2
*I *149:Y O *D sky130_fd_sc_hd__xnor2_1
*CAP
1 *170:A 0.000686279
2 *149:Y 0.000686279
3 *170:A *149:A 0
4 *170:A *171:A 0.000235345
5 *170:A *38:12 0.00011099
6 *170:A *41:23 0.000533709
7 *141:B *170:A 1.14169e-05
8 *149:B *170:A 0
9 *153:A *170:A 8.696e-05
10 *157:A *170:A 0.00019391
*RES
1 *149:Y *170:A 20.88 
*END

*D_NET *35 0.00224446
*CONN
*I *171:A I *D sky130_fd_sc_hd__buf_2
*I *153:X O *D sky130_fd_sc_hd__clkbuf_1
*CAP
1 *171:A 0.000777711
2 *153:X 0.000777711
3 *171:A *143:A 7.44453e-05
4 *171:A *143:D 3.38982e-05
5 *171:A *154:A 0
6 *171:A *172:A 0
7 *171:A *41:23 0.000274659
8 *143:B *171:A 7.06865e-05
9 *170:A *171:A 0.000235345
*RES
1 *153:X *171:A 19.23 
*END

*D_NET *36 0.00158202
*CONN
*I *172:A I *D sky130_fd_sc_hd__clkbuf_4
*I *154:X O *D sky130_fd_sc_hd__xor2_1
*CAP
1 *172:A 0.000580555
2 *154:X 0.000580555
3 *172:A *143:A 1.73877e-05
4 out[4] *172:A 6.57653e-06
5 out[5] *172:A 4.40358e-05
6 *141:B *172:A 0.000282229
7 *156:B *172:A 7.06865e-05
8 *171:A *172:A 0
*RES
1 *154:X *172:A 17.79 
*END

*D_NET *37 0.00683719
*CONN
*I *142:A1 I *D sky130_fd_sc_hd__o31a_1
*I *140:A I *D sky130_fd_sc_hd__nor2_1
*I *155:A I *D sky130_fd_sc_hd__and2_1
*I *143:A I *D sky130_fd_sc_hd__or4_2
*I *159:X O *D sky130_fd_sc_hd__buf_1
*CAP
1 *142:A1 0
2 *140:A 1.62139e-05
3 *155:A 9.75882e-05
4 *143:A 0.00028298
5 *159:X 0.000868595
6 *37:18 0.000712944
7 *37:12 0.00041343
8 *37:10 0.000933436
9 *143:A *143:C 4.82863e-05
10 *143:A *173:A 1.88602e-05
11 *37:10 *173:A 0.000118513
12 *37:12 *173:A 4.17687e-05
13 *37:18 *146:A 0.000159957
14 *37:18 *147:A 0.000153794
15 *140:B *140:A 8.52883e-05
16 *141:B *143:A 0.00039782
17 *141:B *37:18 0.000477521
18 *143:B *143:A 3.13584e-05
19 *147:B *37:18 0.00035825
20 *155:B *155:A 0.000120655
21 *156:A *37:12 6.5319e-05
22 *156:A *37:18 2.05573e-05
23 *156:B *155:A 2.75229e-05
24 *167:A *140:A 8.51862e-05
25 *171:A *143:A 7.44453e-05
26 *172:A *143:A 1.73877e-05
27 *29:10 *37:10 0.000490352
28 *29:10 *37:12 9.50342e-06
29 *29:12 *37:12 0.000185411
30 *29:14 *143:A 1.71013e-05
31 *29:14 *37:12 2.14129e-05
32 *29:14 *37:18 0.000395189
33 *29:16 *143:A 9.05377e-05
*RES
1 *159:X *37:10 15.78 
2 *37:10 *37:12 2.4 
3 *37:12 *37:18 12.645 
4 *37:18 *143:A 10.905 
5 *37:18 *155:A 5.43 
6 *37:12 *140:A 4.395 
7 *37:10 *142:A1 3.6 
*END

*D_NET *38 0.0060553
*CONN
*I *142:A3 I *D sky130_fd_sc_hd__o31a_1
*I *143:C I *D sky130_fd_sc_hd__or4_2
*I *141:A I *D sky130_fd_sc_hd__xnor2_1
*I *160:X O *D sky130_fd_sc_hd__buf_1
*CAP
1 *142:A3 0.000702661
2 *143:C 0.000282509
3 *141:A 0
4 *160:X 0.000301747
5 *38:12 0.00134189
6 *38:6 0.00206379
7 *38:12 *149:A 0
8 *38:12 *42:10 0
9 *141:B *143:C 0.000546157
10 *143:A *143:C 4.82863e-05
11 *149:B *38:12 0
12 *152:B *38:12 0.000140912
13 *153:A *38:12 0
14 *167:A *142:A3 0.000201873
15 *167:A *143:C 0.000125264
16 *167:A *38:12 0
17 *168:A *142:A3 9.37731e-05
18 *170:A *38:12 0.00011099
19 *29:12 *142:A3 9.54399e-05
*RES
1 *160:X *38:6 4.81 
2 *38:6 *38:12 21.19 
3 *38:12 *141:A 1.6 
4 *38:12 *143:C 8.62 
5 *38:6 *142:A3 14.765 
*END

*D_NET *39 0.00571008
*CONN
*I *142:B1 I *D sky130_fd_sc_hd__o31a_1
*I *143:D I *D sky130_fd_sc_hd__or4_2
*I *161:X O *D sky130_fd_sc_hd__buf_1
*CAP
1 *142:B1 0.000320973
2 *143:D 0.000354098
3 *161:X 0.000916678
4 *39:12 0.00159175
5 *142:B1 *150:B 0
6 *142:B1 *40:23 9.3062e-06
7 *143:D *154:A 0.00031972
8 *143:D *40:23 0.00019358
9 *39:12 *150:C 0.000109205
10 *39:12 *40:34 7.00322e-05
11 *143:B *143:D 6.85242e-05
12 *144:A_N *142:B1 0.000295388
13 *144:A_N *143:D 0.000116253
14 *152:A *143:D 0.000164686
15 *168:A *142:B1 0.000512738
16 *171:A *143:D 3.38982e-05
17 *25:10 *143:D 0.000484864
18 *25:10 *39:12 4.82863e-05
19 *29:12 *142:B1 1.44259e-05
20 *29:14 *142:B1 8.09021e-06
21 *29:14 *143:D 1.23244e-05
22 *29:16 *143:D 6.5265e-05
*RES
1 *161:X *39:12 14.52 
2 *39:12 *143:D 15.945 
3 *39:12 *142:B1 10.785 
*END

*D_NET *40 0.00417895
*CONN
*I *147:A I *D sky130_fd_sc_hd__and2_1
*I *146:A I *D sky130_fd_sc_hd__nor2_1
*I *150:A I *D sky130_fd_sc_hd__or4_1
*I *151:A1 I *D sky130_fd_sc_hd__o31ai_1
*I *162:X O *D sky130_fd_sc_hd__buf_1
*CAP
1 *147:A 3.99841e-05
2 *146:A 0.000129962
3 *150:A 0
4 *151:A1 0
5 *162:X 0.000288936
6 *40:34 0.000365625
7 *40:23 0.000503278
8 *40:10 0.000596535
9 *40:10 *151:A2 2.91343e-05
10 *40:23 *150:B 0
11 *40:23 *154:A 7.9642e-06
12 *141:B *146:A 0.00015829
13 *141:B *147:A 0.000162325
14 *142:B1 *40:23 9.3062e-06
15 *143:D *40:23 0.00019358
16 *144:A_N *40:23 0.000109394
17 *144:B *40:10 0.00052799
18 *146:B *146:A 4.77719e-05
19 *150:D *40:23 5.13029e-05
20 *168:A *40:34 0.000192125
21 *21:14 *40:10 0.000124007
22 *21:14 *40:23 2.05056e-05
23 *21:34 *40:23 0.000146464
24 *23:8 *146:A 8.23457e-05
25 *25:10 *40:34 8.34281e-06
26 *37:18 *146:A 0.000159957
27 *37:18 *147:A 0.000153794
28 *39:12 *40:34 7.00322e-05
*RES
1 *162:X *40:10 8.29 
2 *40:10 *151:A1 1.6 
3 *40:10 *40:23 11.455 
4 *40:23 *150:A 1.6 
5 *40:23 *40:34 5.57 
6 *40:34 *146:A 6.99 
7 *40:34 *147:A 5.49 
*END

*D_NET *41 0.00373581
*CONN
*I *150:B I *D sky130_fd_sc_hd__or4_1
*I *151:A2 I *D sky130_fd_sc_hd__o31ai_1
*I *149:A I *D sky130_fd_sc_hd__xnor2_1
*I *163:X O *D sky130_fd_sc_hd__buf_1
*CAP
1 *150:B 0.000378241
2 *151:A2 1.52127e-05
3 *149:A 8.21394e-05
4 *163:X 6.68511e-05
5 *41:23 0.000956502
6 *41:6 0.000712039
7 *150:B *150:C 5.05521e-05
8 *41:23 *42:10 0
9 *142:B1 *150:B 0
10 *149:B *149:A 0.000141599
11 *150:D *150:B 6.99988e-05
12 *167:A *150:B 0
13 *170:A *149:A 0
14 *170:A *41:23 0.000533709
15 *171:A *41:23 0.000274659
16 *21:10 *41:23 0.000200852
17 *21:34 *150:B 0.000204195
18 *21:34 *41:23 2.01214e-05
19 *38:12 *149:A 0
20 *40:10 *151:A2 2.91343e-05
21 *40:23 *150:B 0
*RES
1 *163:X *41:6 2.395 
2 *41:6 *149:A 7.49 
3 *41:6 *41:23 13.7 
4 *41:23 *151:A2 3.8775 
5 *41:23 *150:B 11.13 
*END

*D_NET *42 0.00379582
*CONN
*I *150:C I *D sky130_fd_sc_hd__or4_1
*I *151:B1 I *D sky130_fd_sc_hd__o31ai_1
*I *164:X O *D sky130_fd_sc_hd__clkbuf_1
*CAP
1 *150:C 0.000389328
2 *151:B1 0
3 *164:X 0.000854226
4 *42:10 0.00124355
5 *42:10 *154:A 0.000576908
6 *150:B *150:C 5.05521e-05
7 *167:A *150:C 0.000298184
8 *167:A *42:10 0.00027386
9 *21:10 *42:10 0
10 *38:12 *42:10 0
11 *39:12 *150:C 0.000109205
12 *41:23 *42:10 0
*RES
1 *164:X *42:10 19.965 
2 *42:10 *151:B1 3.6 
3 *42:10 *150:C 12.345 
*END

*D_NET *43 0.00352094
*CONN
*I *154:A I *D sky130_fd_sc_hd__xor2_1
*I *165:X O *D sky130_fd_sc_hd__buf_1
*CAP
1 *154:A 0.00130818
2 *165:X 0.00130818
3 *143:D *154:A 0.00031972
4 *171:A *154:A 0
5 *21:10 *154:A 0
6 *21:34 *154:A 0
7 *40:23 *154:A 7.9642e-06
8 *42:10 *154:A 0.000576908
*RES
1 *165:X *154:A 27.21 
*END

*D_NET *44 0.00454777
*CONN
*I *173:A I *D sky130_fd_sc_hd__buf_2
*I *157:X O *D sky130_fd_sc_hd__clkbuf_1
*CAP
1 *173:A 0.00179812
2 *157:X 0.00179812
3 *141:B *173:A 0.000236923
4 *143:A *173:A 1.88602e-05
5 *144:A_N *173:A 0.000148404
6 *156:A *173:A 2.04763e-05
7 *156:B *173:A 0.000161687
8 *166:A *173:A 4.91189e-05
9 *29:10 *173:A 2.60986e-05
10 *29:14 *173:A 0.000129673
11 *37:10 *173:A 0.000118513
12 *37:12 *173:A 4.17687e-05
*RES
1 *157:X *173:A 14.6335 
*END
