*SPEF "ieee 1481-1999"
*DESIGN "twos_complement"
*DATE "23:20:55 Saturday April 26, 2025"
*VENDOR "The OpenROAD Project"
*PROGRAM "OpenROAD"
*VERSION "b16bda7e82721d10566ff7e2b68f1ff0be9f9e38"
*DESIGN_FLOW "NAME_SCOPE LOCAL" "PIN_CAP NONE"
*DIVIDER /
*DELIMITER :
*BUS_DELIMITER []
*T_UNIT 1 NS
*C_UNIT 1 PF
*R_UNIT 1 OHM
*L_UNIT 1 HENRY

*NAME_MAP
*3 in[0]
*4 in[1]
*5 in[2]
*6 in[3]
*7 in[4]
*8 in[5]
*9 in[6]
*10 in[7]
*11 out[0]
*12 out[1]
*13 out[2]
*14 out[3]
*15 out[4]
*16 out[5]
*17 out[6]
*18 out[7]
*19 _00_
*20 _01_
*21 _02_
*22 _03_
*23 _04_
*24 _05_
*25 _06_
*26 _07_
*27 _08_
*28 _09_
*29 net1
*30 net10
*31 net11
*32 net12
*33 net13
*34 net14
*35 net15
*36 net16
*37 net2
*38 net3
*39 net4
*40 net5
*41 net6
*42 net7
*43 net8
*44 net9
*45 FILLER_0_0_21
*46 FILLER_0_0_27
*47 FILLER_0_0_29
*48 FILLER_0_0_37
*49 FILLER_0_0_9
*50 FILLER_0_10_18
*51 FILLER_0_10_26
*52 FILLER_0_10_29
*53 FILLER_0_10_6
*54 FILLER_0_11_14
*55 FILLER_0_11_26
*56 FILLER_0_11_3
*57 FILLER_0_11_34
*58 FILLER_0_11_45
*59 FILLER_0_12_21
*60 FILLER_0_12_27
*61 FILLER_0_12_29
*62 FILLER_0_12_37
*63 FILLER_0_12_9
*64 FILLER_0_1_15
*65 FILLER_0_1_27
*66 FILLER_0_1_3
*67 FILLER_0_1_39
*68 FILLER_0_1_47
*69 FILLER_0_2_19
*70 FILLER_0_2_27
*71 FILLER_0_2_3
*72 FILLER_0_2_36
*73 FILLER_0_3_21
*74 FILLER_0_3_33
*75 FILLER_0_3_6
*76 FILLER_0_4_11
*77 FILLER_0_4_18
*78 FILLER_0_4_26
*79 FILLER_0_4_29
*80 FILLER_0_4_3
*81 FILLER_0_4_46
*82 FILLER_0_5_12
*83 FILLER_0_5_20
*84 FILLER_0_5_29
*85 FILLER_0_5_42
*86 FILLER_0_6_15
*87 FILLER_0_6_27
*88 FILLER_0_6_29
*89 FILLER_0_6_3
*90 FILLER_0_6_41
*91 FILLER_0_6_47
*92 FILLER_0_7_15
*93 FILLER_0_7_27
*94 FILLER_0_7_3
*95 FILLER_0_7_39
*96 FILLER_0_7_45
*97 FILLER_0_8_18
*98 FILLER_0_8_26
*99 FILLER_0_8_35
*100 FILLER_0_8_43
*101 FILLER_0_8_6
*102 FILLER_0_9_15
*103 FILLER_0_9_19
*104 FILLER_0_9_3
*105 FILLER_0_9_31
*106 FILLER_0_9_42
*107 PHY_EDGE_ROW_0_Left_13
*108 PHY_EDGE_ROW_0_Right_0
*109 PHY_EDGE_ROW_10_Left_23
*110 PHY_EDGE_ROW_10_Right_10
*111 PHY_EDGE_ROW_11_Left_24
*112 PHY_EDGE_ROW_11_Right_11
*113 PHY_EDGE_ROW_12_Left_25
*114 PHY_EDGE_ROW_12_Right_12
*115 PHY_EDGE_ROW_1_Left_14
*116 PHY_EDGE_ROW_1_Right_1
*117 PHY_EDGE_ROW_2_Left_15
*118 PHY_EDGE_ROW_2_Right_2
*119 PHY_EDGE_ROW_3_Left_16
*120 PHY_EDGE_ROW_3_Right_3
*121 PHY_EDGE_ROW_4_Left_17
*122 PHY_EDGE_ROW_4_Right_4
*123 PHY_EDGE_ROW_5_Left_18
*124 PHY_EDGE_ROW_5_Right_5
*125 PHY_EDGE_ROW_6_Left_19
*126 PHY_EDGE_ROW_6_Right_6
*127 PHY_EDGE_ROW_7_Left_20
*128 PHY_EDGE_ROW_7_Right_7
*129 PHY_EDGE_ROW_8_Left_21
*130 PHY_EDGE_ROW_8_Right_8
*131 PHY_EDGE_ROW_9_Left_22
*132 PHY_EDGE_ROW_9_Right_9
*133 TAP_TAPCELL_ROW_0_26
*134 TAP_TAPCELL_ROW_10_31
*135 TAP_TAPCELL_ROW_12_32
*136 TAP_TAPCELL_ROW_2_27
*137 TAP_TAPCELL_ROW_4_28
*138 TAP_TAPCELL_ROW_6_29
*139 TAP_TAPCELL_ROW_8_30
*140 _10_
*141 _11_
*142 _12_
*143 _13_
*144 _14_
*145 _15_
*146 _16_
*147 _17_
*148 _18_
*149 _19_
*150 _20_
*151 _21_
*152 _22_
*153 _23_
*154 _24_
*155 _25_
*156 _26_
*157 _27_
*158 input1
*159 input2
*160 input3
*161 input4
*162 input5
*163 input6
*164 input7
*165 input8
*166 output10
*167 output11
*168 output12
*169 output13
*170 output14
*171 output15
*172 output16
*173 output9

*PORTS
in[0] I
in[1] I
in[2] I
in[3] I
in[4] I
in[5] I
in[6] I
in[7] I
out[0] O
out[1] O
out[2] O
out[3] O
out[4] O
out[5] O
out[6] O
out[7] O

*D_NET *3 0.00114897
*CONN
*P in[0] I
*I *158:A I *D sky130_fd_sc_hd__buf_1
*CAP
1 in[0] 0.000574485
2 *158:A 0
3 *3:11 0.000574485
4 *3:11 *4:19 0
*RES
1 in[0] *3:11 31.4739 
2 *3:11 *158:A 23 
*END

*D_NET *4 0.000859669
*CONN
*P in[1] I
*I *159:A I *D sky130_fd_sc_hd__buf_1
*CAP
1 in[1] 0.00041832
2 *159:A 0
3 *4:19 0.00041832
4 *4:19 *160:A 0
5 *4:19 *29:6 2.30292e-05
6 *3:11 *4:19 0
*RES
1 in[1] *4:19 28.7327 
2 *4:19 *159:A 23 
*END

*D_NET *5 0.000615123
*CONN
*P in[2] I
*I *160:A I *D sky130_fd_sc_hd__buf_1
*CAP
1 in[2] 0.000307562
2 *160:A 0.000307562
3 *160:A *6:17 0
4 *4:19 *160:A 0
*RES
1 in[2] *160:A 49.8062 
*END

*D_NET *6 0.000730756
*CONN
*P in[3] I
*I *161:A I *D sky130_fd_sc_hd__buf_1
*CAP
1 in[3] 0.000365378
2 *161:A 0
3 *6:17 0.000365378
4 *6:17 *148:A 0
5 *6:17 *7:13 0
6 *160:A *6:17 0
*RES
1 in[3] *6:17 28.2148 
2 *6:17 *161:A 23 
*END

*D_NET *7 0.000968199
*CONN
*P in[4] I
*I *162:A I *D sky130_fd_sc_hd__buf_1
*CAP
1 in[4] 0.000465657
2 *162:A 0
3 *7:13 0.000465657
4 *7:13 *144:B 3.68858e-05
5 *7:13 *8:17 0
6 *7:13 *23:12 0
7 *6:17 *7:13 0
*RES
1 in[4] *7:13 30.0917 
2 *7:13 *162:A 23 
*END

*D_NET *8 0.000761607
*CONN
*P in[5] I
*I *163:A I *D sky130_fd_sc_hd__buf_1
*CAP
1 in[5] 0.000380803
2 *163:A 0
3 *8:17 0.000380803
4 *8:17 *164:A 0
5 *8:17 *23:12 0
6 *7:13 *8:17 0
*RES
1 in[5] *8:17 28.567 
2 *8:17 *163:A 23 
*END

*D_NET *9 0.000603153
*CONN
*P in[6] I
*I *164:A I *D sky130_fd_sc_hd__clkbuf_1
*CAP
1 in[6] 0.000301577
2 *164:A 0.000301577
3 *164:A *10:11 0
4 *8:17 *164:A 0
*RES
1 in[6] *164:A 49.8062 
*END

*D_NET *10 0.00130197
*CONN
*P in[7] I
*I *165:A I *D sky130_fd_sc_hd__buf_1
*CAP
1 in[7] 0.000650983
2 *165:A 0
3 *10:11 0.000650983
4 *164:A *10:11 0
*RES
1 in[7] *10:11 32.0837 
2 *10:11 *165:A 23 
*END

*D_NET *11 0.00123536
*CONN
*P out[0] O
*I *173:X O *D sky130_fd_sc_hd__buf_2
*CAP
1 out[0] 0.00029892
2 *173:X 0.000318757
3 *11:8 0.000617678
4 out[0] out[1] 0
*RES
1 *173:X *11:8 44.6596 
2 *11:8 out[0] 9.10133 
*END

*D_NET *12 0.000466897
*CONN
*P out[1] O
*I *166:X O *D sky130_fd_sc_hd__buf_2
*CAP
1 out[1] 0.000233449
2 *166:X 0.000233449
3 out[1] out[2] 0
4 out[1] *29:10 0
5 out[0] out[1] 0
*RES
1 *166:X out[1] 47.0789 
*END

*D_NET *13 0.000464825
*CONN
*P out[2] O
*I *167:X O *D sky130_fd_sc_hd__buf_2
*CAP
1 out[2] 0.000228102
2 *167:X 0.000228102
3 out[2] out[3] 0
4 out[2] *28:18 8.62073e-06
5 out[1] out[2] 0
*RES
1 *167:X out[2] 47.0789 
*END

*D_NET *14 0.000653903
*CONN
*P out[3] O
*I *168:X O *D sky130_fd_sc_hd__buf_2
*CAP
1 out[3] 0.000295963
2 *168:X 0.000295963
3 out[3] out[4] 0
4 out[3] *33:12 6.19771e-05
5 out[2] out[3] 0
*RES
1 *168:X out[3] 48.4875 
*END

*D_NET *15 0.000471557
*CONN
*P out[4] O
*I *169:X O *D sky130_fd_sc_hd__buf_2
*CAP
1 out[4] 0.000232716
2 *169:X 0.000232716
3 out[4] out[5] 0
4 out[4] *36:12 6.12496e-06
5 out[3] out[4] 0
*RES
1 *169:X out[4] 47.0789 
*END

*D_NET *16 0.000632469
*CONN
*P out[5] O
*I *170:X O *D sky130_fd_sc_hd__buf_2
*CAP
1 out[5] 0.000294605
2 *170:X 0.000294605
3 out[5] out[6] 0
4 out[5] *36:12 4.32584e-05
5 out[4] out[5] 0
*RES
1 *170:X out[5] 48.4875 
*END

*D_NET *17 0.00081608
*CONN
*P out[6] O
*I *171:X O *D sky130_fd_sc_hd__buf_2
*CAP
1 out[6] 0.00040804
2 *171:X 0.00040804
3 out[6] out[7] 0
4 out[5] out[6] 0
*RES
1 *171:X out[6] 47.5941 
*END

*D_NET *18 0.00110166
*CONN
*P out[7] O
*I *172:X O *D sky130_fd_sc_hd__clkbuf_4
*CAP
1 out[7] 0.000175108
2 *172:X 0.000375724
3 *18:8 0.000550832
4 out[6] out[7] 0
*RES
1 *172:X *18:8 45.7161 
2 *18:8 out[7] 8.672 
*END

*D_NET *19 0.00741033
*CONN
*I *156:A I *D sky130_fd_sc_hd__nor2_1
*I *141:B I *D sky130_fd_sc_hd__xnor2_1
*I *140:Y O *D sky130_fd_sc_hd__nor2_1
*CAP
1 *156:A 0.000121257
2 *141:B 0.000318797
3 *140:Y 0
4 *19:22 0.00139469
5 *19:6 0.00119715
6 *141:B *143:C 0.000130682
7 *141:B *31:8 0.000143535
8 *141:B *34:10 1.3523e-05
9 *156:A *28:18 0.00030458
10 *156:A *37:12 6.37625e-05
11 *156:A *37:18 2.12635e-05
12 *156:A *44:26 2.10926e-05
13 *19:22 *143:A 0.000446398
14 *19:22 *143:B 9.84851e-05
15 *19:22 *143:C 0.000487147
16 *19:22 *146:A 0.000188916
17 *19:22 *147:A 0.000194318
18 *19:22 *21:10 5.67058e-05
19 *19:22 *28:12 0.000132478
20 *19:22 *28:18 0.00100206
21 *19:22 *36:12 0.000324131
22 *19:22 *37:18 0.0005406
23 *19:22 *44:12 2.26406e-05
24 *19:22 *44:26 0.000186119
*RES
1 *140:Y *19:6 38 
2 *19:6 *19:22 47.9771 
3 *19:22 *141:B 28.5721 
4 *19:6 *156:A 42.0186 
*END

*D_NET *20 0.00586512
*CONN
*I *144:A_N I *D sky130_fd_sc_hd__and2b_1
*I *142:X O *D sky130_fd_sc_hd__o31a_1
*CAP
1 *144:A_N 0
2 *142:X 0.000255051
3 *20:26 0.00238849
4 *20:10 0.00264354
5 *20:10 *142:B1 6.25834e-05
6 *20:10 *32:8 0.000139969
7 *20:26 *142:B1 0.000101418
8 *20:26 *23:12 5.58873e-06
9 *20:26 *40:23 0.000119728
10 *20:26 *44:26 0.000148746
*RES
1 *142:X *20:10 42.2775 
2 *20:10 *20:26 37.9845 
3 *20:26 *144:A_N 38 
*END

*D_NET *21 0.0065596
*CONN
*I *150:D I *D sky130_fd_sc_hd__or4_1
*I *146:B I *D sky130_fd_sc_hd__nor2_1
*I *147:B I *D sky130_fd_sc_hd__and2_1
*I *151:A3 I *D sky130_fd_sc_hd__o31ai_1
*I *144:B I *D sky130_fd_sc_hd__and2b_1
*I *143:X O *D sky130_fd_sc_hd__or4_2
*CAP
1 *150:D 0.000109946
2 *146:B 7.76151e-05
3 *147:B 0
4 *151:A3 0
5 *144:B 0.000395388
6 *143:X 0.000384836
7 *21:44 0.000146104
8 *21:38 0.000466528
9 *21:34 0.000586594
10 *21:14 0.000494823
11 *21:10 0.000718111
12 *144:B *26:10 0.000401433
13 *144:B *40:10 0.000610852
14 *146:B *146:A 5.56279e-05
15 *146:B *23:6 4.21158e-05
16 *150:D *150:B 7.45175e-05
17 *150:D *40:23 4.90994e-05
18 *21:10 *41:23 0.00021622
19 *21:10 *42:10 0
20 *21:10 *43:14 0
21 *21:14 *40:10 0.000141052
22 *21:14 *40:23 2.18409e-05
23 *21:34 *150:B 0.00022043
24 *21:34 *40:23 0.000143713
25 *21:34 *41:23 2.04302e-05
26 *21:34 *43:14 0
27 *21:38 *23:6 0.000231347
28 *21:44 *29:14 0.000428691
29 *21:44 *37:18 0.000428691
30 *7:13 *144:B 3.68858e-05
31 *19:22 *21:10 5.67058e-05
*RES
1 *143:X *21:10 45.8093 
2 *21:10 *21:14 17.0507 
3 *21:14 *144:B 32.86 
4 *21:14 *151:A3 23 
5 *21:10 *21:34 6.48357 
6 *21:34 *21:38 19.9093 
7 *21:38 *21:44 35.7793 
8 *21:44 *147:B 23 
9 *21:38 *146:B 24.5743 
10 *21:34 *150:D 40.2579 
*END

*D_NET *22 0.00211376
*CONN
*I *145:A I *D sky130_fd_sc_hd__clkbuf_1
*I *144:X O *D sky130_fd_sc_hd__and2b_1
*CAP
1 *145:A 0
2 *144:X 0
3 *22:12 0.000848937
4 *22:6 0.000848937
5 *22:12 *148:A 0.000190195
6 *22:12 *23:12 0.000225691
*RES
1 *144:X *22:6 38 
2 *22:6 *22:12 32.9179 
3 *22:12 *145:A 23 
*END

*D_NET *23 0.00624772
*CONN
*I *148:A I *D sky130_fd_sc_hd__nor2_1
*I *149:B I *D sky130_fd_sc_hd__xnor2_1
*I *146:Y O *D sky130_fd_sc_hd__nor2_1
*CAP
1 *148:A 0.000515246
2 *149:B 0
3 *146:Y 0.00145529
4 *23:12 0.00067393
5 *23:8 0.00118918
6 *23:6 0.00145529
7 *23:6 *146:A 9.41704e-05
8 *23:12 *34:10 0
9 *23:12 *38:10 0
10 *23:12 *41:12 0.000169674
11 *146:B *23:6 4.21158e-05
12 *6:17 *148:A 0
13 *7:13 *23:12 0
14 *8:17 *23:12 0
15 *20:26 *23:12 5.58873e-06
16 *21:38 *23:6 0.000231347
17 *22:12 *148:A 0.000190195
18 *22:12 *23:12 0.000225691
*RES
1 *146:Y *23:6 40.7729 
2 *23:6 *23:8 15 
3 *23:8 *23:12 29.935 
4 *23:12 *149:B 23 
5 *23:8 *148:A 47.9843 
*END

*D_NET *24 0.00112665
*CONN
*I *148:B I *D sky130_fd_sc_hd__nor2_1
*I *147:X O *D sky130_fd_sc_hd__and2_1
*CAP
1 *148:B 0
2 *147:X 0.000404274
3 *24:6 0.000404274
4 *24:6 *33:6 0.000318102
*RES
1 *147:X *24:6 32.1971 
2 *24:6 *148:B 23 
*END

*D_NET *25 0.00339647
*CONN
*I *154:B I *D sky130_fd_sc_hd__xor2_1
*I *152:A I *D sky130_fd_sc_hd__and2_1
*I *150:X O *D sky130_fd_sc_hd__or4_1
*CAP
1 *154:B 0
2 *152:A 0
3 *150:X 0.000292983
4 *25:16 0.000759392
5 *25:10 0.00105237
6 *25:10 *29:14 0.000296711
7 *25:10 *32:14 6.17437e-06
8 *25:10 *39:10 5.50049e-05
9 *25:10 *39:16 0.000580858
10 *25:10 *40:34 8.48502e-06
11 *25:16 *27:10 4.7107e-05
12 *25:16 *29:14 9.98995e-05
13 *25:16 *39:16 0.000197479
*RES
1 *150:X *25:10 46.99 
2 *25:10 *25:16 28.7129 
3 *25:16 *152:A 23 
4 *25:10 *154:B 38 
*END

*D_NET *26 0.00133177
*CONN
*I *152:B I *D sky130_fd_sc_hd__and2_1
*I *151:Y O *D sky130_fd_sc_hd__o31ai_1
*CAP
1 *152:B 0
2 *151:Y 0.00038079
3 *26:10 0.00038079
4 *26:10 *31:16 0
5 *26:10 *38:10 0.000168754
6 *144:B *26:10 0.000401433
*RES
1 *151:Y *26:10 44.6907 
2 *26:10 *152:B 38 
*END

*D_NET *27 0.000759172
*CONN
*I *153:A I *D sky130_fd_sc_hd__clkbuf_1
*I *152:X O *D sky130_fd_sc_hd__and2_1
*CAP
1 *153:A 4.23354e-05
2 *152:X 0.000192992
3 *27:10 0.000235328
4 *153:A *34:16 0.000101762
5 *27:10 *31:16 0.000139647
6 *27:10 *38:10 0
7 *25:16 *27:10 4.7107e-05
*RES
1 *152:X *27:10 41.48 
2 *27:10 *153:A 39.0979 
*END

*D_NET *28 0.0038942
*CONN
*I *156:B I *D sky130_fd_sc_hd__nor2_1
*I *155:X O *D sky130_fd_sc_hd__and2_1
*CAP
1 *156:B 0
2 *155:X 0.000134513
3 *28:18 0.000578024
4 *28:12 0.000712537
5 *28:12 *155:A 2.93845e-05
6 *28:12 *36:12 8.4047e-05
7 *28:18 *33:12 0.00078055
8 *28:18 *44:26 0.000127409
9 out[2] *28:18 8.62073e-06
10 *156:A *28:18 0.00030458
11 *19:22 *28:12 0.000132478
12 *19:22 *28:18 0.00100206
*RES
1 *155:X *28:12 40.9725 
2 *28:12 *28:18 33.1975 
3 *28:18 *156:B 23 
*END

*D_NET *29 0.00794069
*CONN
*I *142:A2 I *D sky130_fd_sc_hd__o31a_1
*I *140:B I *D sky130_fd_sc_hd__nor2_1
*I *155:B I *D sky130_fd_sc_hd__and2_1
*I *157:A I *D sky130_fd_sc_hd__clkbuf_1
*I *143:B I *D sky130_fd_sc_hd__or4_2
*I *158:X O *D sky130_fd_sc_hd__buf_1
*CAP
1 *142:A2 0
2 *140:B 0.000157098
3 *155:B 0.000148324
4 *157:A 0.000128997
5 *143:B 0.000192441
6 *158:X 0.000763413
7 *29:16 0.00039799
8 *29:14 0.000725188
9 *29:12 0.000738247
10 *29:10 0.00021843
11 *29:6 0.000901006
12 *140:B *140:A 0.000100069
13 *140:B *31:16 7.53722e-05
14 *143:B *143:A 3.23438e-05
15 *143:B *171:A 8.4047e-05
16 *143:B *39:16 7.1341e-05
17 *155:B *155:A 0.000137651
18 *157:A *34:16 0.000222953
19 *29:6 *37:6 0.000371687
20 *29:10 *37:10 0.000130424
21 *29:10 *37:12 1.14452e-05
22 *29:10 *44:26 2.84912e-05
23 *29:12 *142:B1 1.34354e-05
24 *29:12 *32:14 2.24048e-05
25 *29:12 *37:12 0.000222123
26 *29:12 *38:34 0.000114083
27 *29:14 *142:B1 7.76364e-06
28 *29:14 *143:A 1.83667e-05
29 *29:14 *32:14 0.000226447
30 *29:14 *37:12 2.55642e-05
31 *29:14 *37:18 0.000430779
32 *29:14 *39:16 1.17049e-05
33 *29:14 *44:26 0.000102182
34 *29:16 *143:A 9.74235e-05
35 *29:16 *39:16 6.46393e-05
36 out[1] *29:10 0
37 *4:19 *29:6 2.30292e-05
38 *19:22 *143:B 9.84851e-05
39 *21:44 *29:14 0.000428691
40 *25:10 *29:14 0.000296711
41 *25:16 *29:14 9.98995e-05
*RES
1 *158:X *29:6 38.8671 
2 *29:6 *29:10 18.3143 
3 *29:10 *29:12 2.96214 
4 *29:12 *29:14 17.4 
5 *29:14 *29:16 2.61 
6 *29:16 *143:B 42.1221 
7 *29:16 *157:A 40.5271 
8 *29:14 *155:B 40.5271 
9 *29:12 *140:B 41.0243 
10 *29:10 *142:A2 38 
*END

*D_NET *30 0.000305556
*CONN
*I *166:A I *D sky130_fd_sc_hd__buf_2
*I *156:Y O *D sky130_fd_sc_hd__nor2_1
*CAP
1 *166:A 4.24211e-05
2 *156:Y 8.61681e-05
3 *30:8 0.000128589
4 *30:8 *44:26 4.83778e-05
*RES
1 *156:Y *30:8 39.9057 
2 *30:8 *166:A 38.6214 
*END

*D_NET *31 0.00471843
*CONN
*I *167:A I *D sky130_fd_sc_hd__buf_2
*I *141:Y O *D sky130_fd_sc_hd__xnor2_1
*CAP
1 *167:A 0
2 *141:Y 2.27311e-05
3 *31:16 0.00162963
4 *31:8 0.00165236
5 *31:8 *143:C 0.000145236
6 *31:16 *140:A 9.8203e-05
7 *31:16 *150:B 0
8 *31:16 *38:10 0
9 *31:16 *38:34 0.000197987
10 *31:16 *42:10 0.000291693
11 *31:16 *42:23 0.00032203
12 *140:B *31:16 7.53722e-05
13 *141:B *31:8 0.000143535
14 *26:10 *31:16 0
15 *27:10 *31:16 0.000139647
*RES
1 *141:Y *31:8 39.5743 
2 *31:8 *31:16 48.2257 
3 *31:16 *167:A 23 
*END

*D_NET *32 0.00359701
*CONN
*I *168:A I *D sky130_fd_sc_hd__buf_2
*I *145:X O *D sky130_fd_sc_hd__clkbuf_1
*CAP
1 *168:A 0
2 *145:X 0.000639903
3 *32:14 0.00048859
4 *32:8 0.00112849
5 *32:14 *142:B1 0.000613795
6 *32:14 *38:34 0.000111852
7 *32:14 *40:34 0.000219383
8 *20:10 *32:8 0.000139969
9 *25:10 *32:14 6.17437e-06
10 *29:12 *32:14 2.24048e-05
11 *29:14 *32:14 0.000226447
*RES
1 *145:X *32:8 49.1029 
2 *32:8 *32:14 27.2007 
3 *32:14 *168:A 23 
*END

*D_NET *33 0.00382027
*CONN
*I *169:A I *D sky130_fd_sc_hd__buf_2
*I *148:Y O *D sky130_fd_sc_hd__nor2_1
*CAP
1 *169:A 0
2 *148:Y 0.000942975
3 *33:12 0.000386847
4 *33:6 0.00132982
5 out[3] *33:12 6.19771e-05
6 *24:6 *33:6 0.000318102
7 *28:18 *33:12 0.00078055
*RES
1 *148:Y *33:6 35.5321 
2 *33:6 *33:12 40.3571 
3 *33:12 *169:A 23 
*END

*D_NET *34 0.00308685
*CONN
*I *170:A I *D sky130_fd_sc_hd__buf_2
*I *149:Y O *D sky130_fd_sc_hd__xnor2_1
*CAP
1 *170:A 0
2 *149:Y 0.000211832
3 *34:16 0.000662208
4 *34:10 0.000874041
5 *34:10 *38:10 0.00013449
6 *34:10 *41:12 0
7 *34:16 *35:8 0.000251543
8 *34:16 *41:23 0.000614497
9 *141:B *34:10 1.3523e-05
10 *153:A *34:16 0.000101762
11 *157:A *34:16 0.000222953
12 *23:12 *34:10 0
*RES
1 *149:Y *34:10 41.48 
2 *34:10 *34:16 30.4114 
3 *34:16 *170:A 23 
*END

*D_NET *35 0.00270243
*CONN
*I *171:A I *D sky130_fd_sc_hd__buf_2
*I *153:X O *D sky130_fd_sc_hd__clkbuf_1
*CAP
1 *171:A 0.000379383
2 *153:X 0.00059184
3 *35:8 0.000971223
4 *171:A *143:A 7.91596e-05
5 *171:A *36:12 0
6 *171:A *39:16 3.28876e-05
7 *171:A *43:14 0
8 *35:8 *41:23 0.000312348
9 *143:B *171:A 8.4047e-05
10 *34:16 *35:8 0.000251543
*RES
1 *153:X *35:8 46.7207 
2 *35:8 *171:A 45.8921 
*END

*D_NET *36 0.00196819
*CONN
*I *172:A I *D sky130_fd_sc_hd__clkbuf_4
*I *154:X O *D sky130_fd_sc_hd__xor2_1
*CAP
1 *172:A 0
2 *154:X 0.000110836
3 *36:12 0.000635996
4 *36:8 0.000746832
5 *36:12 *143:A 1.69668e-05
6 out[4] *36:12 6.12496e-06
7 out[5] *36:12 4.32584e-05
8 *171:A *36:12 0
9 *19:22 *36:12 0.000324131
10 *28:12 *36:12 8.4047e-05
*RES
1 *154:X *36:8 39.0979 
2 *36:8 *36:12 28.5264 
3 *36:12 *172:A 23 
*END

*D_NET *37 0.00829664
*CONN
*I *142:A1 I *D sky130_fd_sc_hd__o31a_1
*I *140:A I *D sky130_fd_sc_hd__nor2_1
*I *155:A I *D sky130_fd_sc_hd__and2_1
*I *143:A I *D sky130_fd_sc_hd__or4_2
*I *159:X O *D sky130_fd_sc_hd__buf_1
*CAP
1 *142:A1 0
2 *140:A 2.34104e-05
3 *155:A 0.000127842
4 *143:A 0.000398742
5 *159:X 0.00100113
6 *37:18 0.00100735
7 *37:12 0.000601201
8 *37:10 0.000142867
9 *37:6 0.00104697
10 *143:A *143:C 5.50049e-05
11 *143:A *44:12 2.26406e-05
12 *37:10 *44:26 0.000141869
13 *37:12 *44:26 4.99867e-05
14 *37:18 *146:A 0.000191148
15 *37:18 *147:A 0.000184174
16 *140:B *140:A 0.000100069
17 *143:B *143:A 3.23438e-05
18 *155:B *155:A 0.000137651
19 *156:A *37:12 6.37625e-05
20 *156:A *37:18 2.12635e-05
21 *171:A *143:A 7.91596e-05
22 *19:22 *143:A 0.000446398
23 *19:22 *37:18 0.0005406
24 *21:44 *37:18 0.000428691
25 *28:12 *155:A 2.93845e-05
26 *29:6 *37:6 0.000371687
27 *29:10 *37:10 0.000130424
28 *29:10 *37:12 1.14452e-05
29 *29:12 *37:12 0.000222123
30 *29:14 *143:A 1.83667e-05
31 *29:14 *37:12 2.55642e-05
32 *29:14 *37:18 0.000430779
33 *29:16 *143:A 9.74235e-05
34 *31:16 *140:A 9.8203e-05
35 *36:12 *143:A 1.69668e-05
*RES
1 *159:X *37:6 37.9143 
2 *37:6 *37:10 16.9057 
3 *37:10 *37:12 3.31429 
4 *37:12 *37:18 17.4621 
5 *37:18 *143:A 48.0879 
6 *37:18 *155:A 40.5271 
7 *37:12 *140:A 39.0979 
8 *37:10 *142:A1 38 
*END

*D_NET *38 0.00727559
*CONN
*I *142:A3 I *D sky130_fd_sc_hd__o31a_1
*I *143:C I *D sky130_fd_sc_hd__or4_2
*I *141:A I *D sky130_fd_sc_hd__xnor2_1
*I *160:X O *D sky130_fd_sc_hd__buf_1
*CAP
1 *142:A3 0
2 *143:C 0.000329401
3 *141:A 0
4 *160:X 0.000356636
5 *38:34 0.000862507
6 *38:12 0.000329401
7 *38:10 0.00131663
8 *38:6 0.00253577
9 *38:10 *41:12 0
10 *38:10 *42:10 0
11 *141:B *143:C 0.000130682
12 *143:A *143:C 5.50049e-05
13 *19:22 *143:C 0.000487147
14 *23:12 *38:10 0
15 *26:10 *38:10 0.000168754
16 *27:10 *38:10 0
17 *29:12 *38:34 0.000114083
18 *31:8 *143:C 0.000145236
19 *31:16 *38:10 0
20 *31:16 *38:34 0.000197987
21 *32:14 *38:34 0.000111852
22 *34:10 *38:10 0.00013449
*RES
1 *160:X *38:6 27.4329 
2 *38:6 *38:10 38.7386 
3 *38:10 *38:12 15 
4 *38:12 *141:A 23 
5 *38:12 *143:C 32.6943 
6 *38:6 *38:34 42.6564 
7 *38:34 *142:A3 23 
*END

*D_NET *39 0.00669945
*CONN
*I *142:B1 I *D sky130_fd_sc_hd__o31a_1
*I *143:D I *D sky130_fd_sc_hd__or4_2
*I *161:X O *D sky130_fd_sc_hd__buf_1
*CAP
1 *142:B1 0.000432532
2 *143:D 0
3 *161:X 0.00111695
4 *39:16 0.000526633
5 *39:12 0.000959165
6 *39:10 0.00111695
7 *142:B1 *150:B 0
8 *142:B1 *40:23 9.21347e-06
9 *39:10 *40:34 7.59161e-05
10 *39:10 *42:23 0.000116683
11 *39:16 *40:23 0.000189333
12 *39:16 *43:14 0.000343156
13 *143:B *39:16 7.1341e-05
14 *171:A *39:16 3.28876e-05
15 *20:10 *142:B1 6.25834e-05
16 *20:26 *142:B1 0.000101418
17 *25:10 *39:10 5.50049e-05
18 *25:10 *39:16 0.000580858
19 *25:16 *39:16 0.000197479
20 *29:12 *142:B1 1.34354e-05
21 *29:14 *142:B1 7.76364e-06
22 *29:14 *39:16 1.17049e-05
23 *29:16 *39:16 6.46393e-05
24 *32:14 *142:B1 0.000613795
*RES
1 *161:X *39:10 38.08 
2 *39:10 *39:12 15 
3 *39:12 *39:16 32.0479 
4 *39:16 *143:D 23 
5 *39:12 *142:B1 47.9221 
*END

*D_NET *40 0.00511232
*CONN
*I *147:A I *D sky130_fd_sc_hd__and2_1
*I *146:A I *D sky130_fd_sc_hd__nor2_1
*I *150:A I *D sky130_fd_sc_hd__or4_1
*I *151:A1 I *D sky130_fd_sc_hd__o31ai_1
*I *162:X O *D sky130_fd_sc_hd__buf_1
*CAP
1 *147:A 6.10457e-05
2 *146:A 0.000188859
3 *150:A 0
4 *151:A1 0
5 *162:X 0.000347217
6 *40:34 0.000512426
7 *40:23 0.000689277
8 *40:10 0.000773973
9 *40:10 *151:A2 3.32677e-05
10 *40:23 *150:B 0
11 *40:23 *43:14 9.28078e-06
12 *142:B1 *40:23 9.21347e-06
13 *144:B *40:10 0.000610852
14 *146:B *146:A 5.56279e-05
15 *150:D *40:23 4.90994e-05
16 *19:22 *146:A 0.000188916
17 *19:22 *147:A 0.000194318
18 *20:26 *40:23 0.000119728
19 *21:14 *40:10 0.000141052
20 *21:14 *40:23 2.18409e-05
21 *21:34 *40:23 0.000143713
22 *23:6 *146:A 9.41704e-05
23 *25:10 *40:34 8.48502e-06
24 *32:14 *40:34 0.000219383
25 *37:18 *146:A 0.000191148
26 *37:18 *147:A 0.000184174
27 *39:10 *40:34 7.59161e-05
28 *39:16 *40:23 0.000189333
*RES
1 *162:X *40:10 32.2386 
2 *40:10 *151:A1 23 
3 *40:10 *40:23 40.295 
4 *40:23 *150:A 23 
5 *40:23 *40:34 19.93 
6 *40:34 *146:A 42.6814 
7 *40:34 *147:A 40.61 
*END

*D_NET *41 0.00455514
*CONN
*I *150:B I *D sky130_fd_sc_hd__or4_1
*I *151:A2 I *D sky130_fd_sc_hd__o31ai_1
*I *149:A I *D sky130_fd_sc_hd__xnor2_1
*I *163:X O *D sky130_fd_sc_hd__buf_1
*CAP
1 *150:B 0.000480525
2 *151:A2 2.14615e-05
3 *149:A 0
4 *163:X 8.63479e-05
5 *41:23 0.00122971
6 *41:12 0.000103749
7 *41:6 0.000917823
8 *150:B *42:23 5.41385e-05
9 *41:23 *42:10 0
10 *142:B1 *150:B 0
11 *150:D *150:B 7.45175e-05
12 *21:10 *41:23 0.00021622
13 *21:34 *150:B 0.00022043
14 *21:34 *41:23 2.04302e-05
15 *23:12 *41:12 0.000169674
16 *31:16 *150:B 0
17 *34:10 *41:12 0
18 *34:16 *41:23 0.000614497
19 *35:8 *41:23 0.000312348
20 *38:10 *41:12 0
21 *40:10 *151:A2 3.32677e-05
22 *40:23 *150:B 0
*RES
1 *163:X *41:6 24.0979 
2 *41:6 *41:12 32.61 
3 *41:12 *149:A 23 
4 *41:6 *41:23 31.1571 
5 *41:23 *151:A2 38.3832 
6 *41:23 *150:B 48.3986 
*END

*D_NET *42 0.00463203
*CONN
*I *150:C I *D sky130_fd_sc_hd__or4_1
*I *151:B1 I *D sky130_fd_sc_hd__o31ai_1
*I *164:X O *D sky130_fd_sc_hd__clkbuf_1
*CAP
1 *150:C 0
2 *151:B1 0
3 *164:X 0.000342463
4 *42:23 0.00050292
5 *42:10 0.00124483
6 *42:8 0.00108437
7 *42:8 *43:6 0.000672894
8 *42:10 *43:14 0
9 *150:B *42:23 5.41385e-05
10 *21:10 *42:10 0
11 *31:16 *42:10 0.000291693
12 *31:16 *42:23 0.00032203
13 *38:10 *42:10 0
14 *39:10 *42:23 0.000116683
15 *41:23 *42:10 0
*RES
1 *164:X *42:8 46.7207 
2 *42:8 *42:10 13.8786 
3 *42:10 *151:B1 38 
4 *42:10 *42:23 27.0764 
5 *42:23 *150:C 23 
*END

*D_NET *43 0.00422673
*CONN
*I *154:A I *D sky130_fd_sc_hd__xor2_1
*I *165:X O *D sky130_fd_sc_hd__buf_1
*CAP
1 *154:A 0
2 *165:X 0.000794815
3 *43:14 0.000805883
4 *43:6 0.0016007
5 *171:A *43:14 0
6 *21:10 *43:14 0
7 *21:34 *43:14 0
8 *39:16 *43:14 0.000343156
9 *40:23 *43:14 9.28078e-06
10 *42:8 *43:6 0.000672894
11 *42:10 *43:14 0
*RES
1 *165:X *43:6 35.0557 
2 *43:6 *43:14 45.5771 
3 *43:14 *154:A 23 
*END

*D_NET *44 0.00469187
*CONN
*I *173:A I *D sky130_fd_sc_hd__buf_2
*I *157:X O *D sky130_fd_sc_hd__clkbuf_1
*CAP
1 *173:A 0
2 *157:X 8.52728e-05
3 *44:26 0.00181088
4 *44:12 0.00189616
5 *143:A *44:12 2.26406e-05
6 *156:A *44:26 2.10926e-05
7 *19:22 *44:12 2.26406e-05
8 *19:22 *44:26 0.000186119
9 *20:26 *44:26 0.000148746
10 *28:18 *44:26 0.000127409
11 *29:10 *44:26 2.84912e-05
12 *29:14 *44:26 0.000102182
13 *30:8 *44:26 4.83778e-05
14 *37:10 *44:26 0.000141869
15 *37:12 *44:26 4.99867e-05
*RES
1 *157:X *44:12 46.42 
2 *44:12 *44:26 46.355 
3 *44:26 *173:A 23 
*END
