*SPEF "ieee 1481-1999"
*DESIGN "twos_complement"
*DATE "13:25:42 Saturday April 26, 2025"
*VENDOR "The OpenROAD Project"
*PROGRAM "OpenROAD"
*VERSION "b16bda7e82721d10566ff7e2b68f1ff0be9f9e38"
*DESIGN_FLOW "NAME_SCOPE LOCAL" "PIN_CAP NONE"
*DIVIDER /
*DELIMITER :
*BUS_DELIMITER []
*T_UNIT 1 NS
*C_UNIT 1 PF
*R_UNIT 1 OHM
*L_UNIT 1 HENRY

*NAME_MAP
*3 in[0]
*4 in[1]
*5 in[2]
*6 in[3]
*7 in[4]
*8 in[5]
*9 in[6]
*10 in[7]
*11 out[0]
*12 out[1]
*13 out[2]
*14 out[3]
*15 out[4]
*16 out[5]
*17 out[6]
*18 out[7]
*19 _00_
*20 _01_
*21 _02_
*22 _03_
*23 _04_
*24 _05_
*25 _06_
*26 _07_
*27 _08_
*28 _09_
*29 net1
*30 net10
*31 net11
*32 net12
*33 net13
*34 net14
*35 net15
*36 net16
*37 net2
*38 net3
*39 net4
*40 net5
*41 net6
*42 net7
*43 net8
*44 net9
*45 FILLER_0_0_21
*46 FILLER_0_0_27
*47 FILLER_0_0_29
*48 FILLER_0_0_37
*49 FILLER_0_0_9
*50 FILLER_0_10_18
*51 FILLER_0_10_26
*52 FILLER_0_10_29
*53 FILLER_0_10_41
*54 FILLER_0_10_6
*55 FILLER_0_11_18
*56 FILLER_0_11_30
*57 FILLER_0_11_43
*58 FILLER_0_11_47
*59 FILLER_0_11_6
*60 FILLER_0_12_13
*61 FILLER_0_12_25
*62 FILLER_0_12_29
*63 FILLER_0_12_37
*64 FILLER_0_1_15
*65 FILLER_0_1_27
*66 FILLER_0_1_3
*67 FILLER_0_1_32
*68 FILLER_0_1_44
*69 FILLER_0_2_15
*70 FILLER_0_2_27
*71 FILLER_0_2_29
*72 FILLER_0_2_3
*73 FILLER_0_2_35
*74 FILLER_0_2_41
*75 FILLER_0_3_18
*76 FILLER_0_3_30
*77 FILLER_0_3_36
*78 FILLER_0_3_6
*79 FILLER_0_4_11
*80 FILLER_0_4_23
*81 FILLER_0_4_27
*82 FILLER_0_4_29
*83 FILLER_0_4_3
*84 FILLER_0_4_7
*85 FILLER_0_5_12
*86 FILLER_0_5_23
*87 FILLER_0_5_35
*88 FILLER_0_5_6
*89 FILLER_0_6_10
*90 FILLER_0_6_22
*91 FILLER_0_6_29
*92 FILLER_0_6_41
*93 FILLER_0_6_47
*94 FILLER_0_7_15
*95 FILLER_0_7_27
*96 FILLER_0_7_3
*97 FILLER_0_7_36
*98 FILLER_0_8_12
*99 FILLER_0_8_24
*100 FILLER_0_8_29
*101 FILLER_0_8_39
*102 FILLER_0_8_43
*103 FILLER_0_9_12
*104 FILLER_0_9_24
*105 FILLER_0_9_3
*106 FILLER_0_9_36
*107 PHY_EDGE_ROW_0_Left_13
*108 PHY_EDGE_ROW_0_Right_0
*109 PHY_EDGE_ROW_10_Left_23
*110 PHY_EDGE_ROW_10_Right_10
*111 PHY_EDGE_ROW_11_Left_24
*112 PHY_EDGE_ROW_11_Right_11
*113 PHY_EDGE_ROW_12_Left_25
*114 PHY_EDGE_ROW_12_Right_12
*115 PHY_EDGE_ROW_1_Left_14
*116 PHY_EDGE_ROW_1_Right_1
*117 PHY_EDGE_ROW_2_Left_15
*118 PHY_EDGE_ROW_2_Right_2
*119 PHY_EDGE_ROW_3_Left_16
*120 PHY_EDGE_ROW_3_Right_3
*121 PHY_EDGE_ROW_4_Left_17
*122 PHY_EDGE_ROW_4_Right_4
*123 PHY_EDGE_ROW_5_Left_18
*124 PHY_EDGE_ROW_5_Right_5
*125 PHY_EDGE_ROW_6_Left_19
*126 PHY_EDGE_ROW_6_Right_6
*127 PHY_EDGE_ROW_7_Left_20
*128 PHY_EDGE_ROW_7_Right_7
*129 PHY_EDGE_ROW_8_Left_21
*130 PHY_EDGE_ROW_8_Right_8
*131 PHY_EDGE_ROW_9_Left_22
*132 PHY_EDGE_ROW_9_Right_9
*133 TAP_TAPCELL_ROW_0_26
*134 TAP_TAPCELL_ROW_10_31
*135 TAP_TAPCELL_ROW_12_32
*136 TAP_TAPCELL_ROW_2_27
*137 TAP_TAPCELL_ROW_4_28
*138 TAP_TAPCELL_ROW_6_29
*139 TAP_TAPCELL_ROW_8_30
*140 _10_
*141 _11_
*142 _12_
*143 _13_
*144 _14_
*145 _15_
*146 _16_
*147 _17_
*148 _18_
*149 _19_
*150 _20_
*151 _21_
*152 _22_
*153 _23_
*154 _24_
*155 _25_
*156 _26_
*157 _27_
*158 input1
*159 input2
*160 input3
*161 input4
*162 input5
*163 input6
*164 input7
*165 input8
*166 output10
*167 output11
*168 output12
*169 output13
*170 output14
*171 output15
*172 output16
*173 output9

*PORTS
in[0] I
in[1] I
in[2] I
in[3] I
in[4] I
in[5] I
in[6] I
in[7] I
out[0] O
out[1] O
out[2] O
out[3] O
out[4] O
out[5] O
out[6] O
out[7] O

*D_NET *3 0.00111812
*CONN
*P in[0] I
*I *158:A I *D sky130_fd_sc_hd__dlymetal6s2s_1
*CAP
1 in[0] 0.00055906
2 *158:A 0
3 *3:11 0.00055906
4 *3:11 *4:17 0
*RES
1 in[0] *3:11 31.1218 
2 *3:11 *158:A 23 
*END

*D_NET *4 0.000815582
*CONN
*P in[1] I
*I *159:A I *D sky130_fd_sc_hd__buf_1
*CAP
1 in[1] 0.000407791
2 *159:A 0
3 *4:17 0.000407791
4 *4:17 *160:A 0
5 *3:11 *4:17 0
*RES
1 in[1] *4:17 28.9191 
2 *4:17 *159:A 23 
*END

*D_NET *5 0.000632444
*CONN
*P in[2] I
*I *160:A I *D sky130_fd_sc_hd__buf_1
*CAP
1 in[2] 0.000313135
2 *160:A 0.000313135
3 *160:A *6:13 0
4 *160:A *38:10 6.17437e-06
5 *4:17 *160:A 0
*RES
1 in[2] *160:A 49.8062 
*END

*D_NET *6 0.00125091
*CONN
*P in[3] I
*I *161:A I *D sky130_fd_sc_hd__clkbuf_1
*CAP
1 in[3] 0.000467979
2 *161:A 0
3 *6:13 0.000467979
4 *6:13 *7:17 0
5 *6:13 *20:14 5.3304e-05
6 *6:13 *21:36 4.78593e-05
7 *6:13 *21:44 2.93747e-05
8 *6:13 *38:10 0
9 *6:13 *42:16 0.000184415
10 *160:A *6:13 0
*RES
1 in[3] *6:13 30.7576 
2 *6:13 *161:A 23 
*END

*D_NET *7 0.000650175
*CONN
*P in[4] I
*I *162:A I *D sky130_fd_sc_hd__buf_1
*CAP
1 in[4] 0.000325087
2 *162:A 0
3 *7:17 0.000325087
4 *7:17 *8:17 0
5 *7:17 *20:14 0
6 *6:13 *7:17 0
*RES
1 in[4] *7:17 27.1584 
2 *7:17 *162:A 23 
*END

*D_NET *8 0.000761607
*CONN
*P in[5] I
*I *163:A I *D sky130_fd_sc_hd__buf_1
*CAP
1 in[5] 0.000380803
2 *163:A 0
3 *8:17 0.000380803
4 *8:17 *164:A 0
5 *8:17 *20:14 0
6 *8:17 *42:8 0
7 *7:17 *8:17 0
*RES
1 in[5] *8:17 28.567 
2 *8:17 *163:A 23 
*END

*D_NET *9 0.000603153
*CONN
*P in[6] I
*I *164:A I *D sky130_fd_sc_hd__buf_1
*CAP
1 in[6] 0.000301577
2 *164:A 0.000301577
3 *164:A *10:11 0
4 *8:17 *164:A 0
*RES
1 in[6] *164:A 49.8062 
*END

*D_NET *10 0.00130197
*CONN
*P in[7] I
*I *165:A I *D sky130_fd_sc_hd__clkbuf_1
*CAP
1 in[7] 0.000650983
2 *165:A 0
3 *10:11 0.000650983
4 *164:A *10:11 0
*RES
1 in[7] *10:11 32.0837 
2 *10:11 *165:A 23 
*END

*D_NET *11 0.00123536
*CONN
*P out[0] O
*I *173:X O *D sky130_fd_sc_hd__buf_2
*CAP
1 out[0] 0.00029892
2 *173:X 0.000318757
3 *11:8 0.000617678
4 out[0] out[1] 0
*RES
1 *173:X *11:8 44.6596 
2 *11:8 out[0] 9.10133 
*END

*D_NET *12 0.00046494
*CONN
*P out[1] O
*I *166:X O *D sky130_fd_sc_hd__buf_2
*CAP
1 out[1] 0.00023247
2 *166:X 0.00023247
3 out[1] out[2] 0
4 out[0] out[1] 0
*RES
1 *166:X out[1] 47.0789 
*END

*D_NET *13 0.000464825
*CONN
*P out[2] O
*I *167:X O *D sky130_fd_sc_hd__buf_2
*CAP
1 out[2] 0.000228102
2 *167:X 0.000228102
3 out[2] out[3] 0
4 out[2] *28:12 8.62073e-06
5 out[1] out[2] 0
*RES
1 *167:X out[2] 47.0789 
*END

*D_NET *14 0.000627169
*CONN
*P out[3] O
*I *168:X O *D sky130_fd_sc_hd__buf_2
*CAP
1 out[3] 0.000280847
2 *168:X 0.000280847
3 out[3] out[4] 0
4 out[3] *32:12 6.54744e-05
5 out[2] out[3] 0
*RES
1 *168:X out[3] 48.4875 
*END

*D_NET *15 0.00073648
*CONN
*P out[4] O
*I *169:X O *D sky130_fd_sc_hd__buf_2
*CAP
1 out[4] 0.000358092
2 *169:X 0.000358092
3 out[4] out[5] 0
4 out[4] *39:24 2.02956e-05
5 out[3] out[4] 0
*RES
1 *169:X out[4] 49.4905 
*END

*D_NET *16 0.00124616
*CONN
*P out[5] O
*I *170:X O *D sky130_fd_sc_hd__buf_2
*CAP
1 out[5] 0.000527813
2 *170:X 0.000527813
3 out[5] out[6] 0
4 out[5] *35:10 0.000129571
5 out[5] *36:18 6.09632e-05
6 out[4] out[5] 0
*RES
1 *170:X out[5] 49.0886 
*END

*D_NET *17 0.000828735
*CONN
*P out[6] O
*I *171:X O *D sky130_fd_sc_hd__buf_2
*CAP
1 out[6] 0.000414368
2 *171:X 0.000414368
3 out[6] out[7] 0
4 out[5] out[6] 0
*RES
1 *171:X out[6] 47.5941 
*END

*D_NET *18 0.00110166
*CONN
*P out[7] O
*I *172:X O *D sky130_fd_sc_hd__clkbuf_4
*CAP
1 out[7] 0.000175108
2 *172:X 0.000375724
3 *18:8 0.000550832
4 out[6] out[7] 0
*RES
1 *172:X *18:8 45.7161 
2 *18:8 out[7] 8.672 
*END

*D_NET *19 0.00429203
*CONN
*I *156:A I *D sky130_fd_sc_hd__nor2_1
*I *141:B I *D sky130_fd_sc_hd__xnor2_1
*I *140:Y O *D sky130_fd_sc_hd__nor2_1
*CAP
1 *156:A 0.00074438
2 *141:B 0
3 *140:Y 0
4 *19:12 0.000246355
5 *19:4 0.000990735
6 *156:A *140:B 2.46906e-05
7 *156:A *169:A 9.7008e-05
8 *156:A *37:52 0.00117609
9 *19:12 *140:B 2.93431e-05
10 *19:12 *41:14 0.000490604
11 *19:12 *42:8 0.000492826
*RES
1 *140:Y *19:4 23 
2 *19:4 *19:12 38.0579 
3 *19:12 *141:B 23 
4 *19:4 *156:A 38.8879 
*END

*D_NET *20 0.0047855
*CONN
*I *144:A_N I *D sky130_fd_sc_hd__and2b_1
*I *142:X O *D sky130_fd_sc_hd__o31a_1
*CAP
1 *144:A_N 0
2 *142:X 0.0010658
3 *20:14 0.000458396
4 *20:6 0.00152419
5 *20:6 *36:18 0.000119426
6 *20:6 *41:8 9.67842e-05
7 *20:14 *38:10 0.000411299
8 *20:14 *42:8 0.0010563
9 *6:13 *20:14 5.3304e-05
10 *7:17 *20:14 0
11 *8:17 *20:14 0
*RES
1 *142:X *20:6 40.7729 
2 *20:6 *20:14 44.5 
3 *20:14 *144:A_N 23 
*END

*D_NET *21 0.00724671
*CONN
*I *151:A3 I *D sky130_fd_sc_hd__o31ai_1
*I *144:B I *D sky130_fd_sc_hd__and2b_1
*I *150:D I *D sky130_fd_sc_hd__or4_1
*I *147:B I *D sky130_fd_sc_hd__and2_1
*I *146:B I *D sky130_fd_sc_hd__nor2_1
*I *143:X O *D sky130_fd_sc_hd__or4_2
*CAP
1 *151:A3 0
2 *144:B 0
3 *150:D 0
4 *147:B 4.91012e-05
5 *146:B 0.000156495
6 *143:X 0.000355388
7 *21:44 0.000117914
8 *21:36 0.000711138
9 *21:34 0.000901488
10 *21:10 0.000491455
11 *21:8 0.00094951
12 *146:B *23:12 6.93553e-05
13 *146:B *35:10 0
14 *146:B *40:20 2.04774e-05
15 *147:B *147:A 0.000270682
16 *147:B *22:12 0.000270682
17 *21:8 *143:A 1.40958e-05
18 *21:8 *152:A 1.41129e-05
19 *21:8 *36:8 0.000178517
20 *21:8 *37:33 0.000182826
21 *21:10 *23:12 0.000286126
22 *21:10 *24:12 0.000118736
23 *21:10 *33:10 6.6869e-05
24 *21:10 *35:10 0
25 *21:34 *151:A2 3.70094e-05
26 *21:34 *23:12 3.11878e-05
27 *21:34 *26:8 0.000558204
28 *21:34 *33:10 4.49946e-05
29 *21:34 *44:20 0.000512022
30 *21:36 *151:A1 3.17516e-05
31 *21:36 *42:16 0.000435331
32 *21:44 *150:C 0.000169674
33 *21:44 *29:16 0
34 *21:44 *38:10 1.02387e-05
35 *21:44 *41:14 0.000114092
36 *6:13 *21:36 4.78593e-05
37 *6:13 *21:44 2.93747e-05
*RES
1 *143:X *21:8 42.9093 
2 *21:8 *21:10 7.89214 
3 *21:10 *146:B 41.2314 
4 *21:10 *147:B 41.0036 
5 *21:8 *21:34 25.005 
6 *21:34 *21:36 12.0557 
7 *21:36 *21:44 33.2314 
8 *21:44 *150:D 23 
9 *21:36 *144:B 23 
10 *21:34 *151:A3 23 
*END

*D_NET *22 0.00494401
*CONN
*I *145:A I *D sky130_fd_sc_hd__clkbuf_1
*I *144:X O *D sky130_fd_sc_hd__and2b_1
*CAP
1 *145:A 2.43873e-05
2 *144:X 0
3 *22:12 0.00159664
4 *22:6 0.00157225
5 *22:12 *147:A 8.85483e-05
6 *22:12 *24:8 3.22879e-05
7 *22:12 *32:8 3.22879e-05
8 *22:12 *40:14 0.000224504
9 *22:12 *41:14 0.00104906
10 *22:12 *42:8 5.3365e-05
11 *147:B *22:12 0.000270682
*RES
1 *144:X *22:6 38 
2 *22:6 *22:12 49.7171 
3 *22:12 *145:A 23.4971 
*END

*D_NET *23 0.00551373
*CONN
*I *149:B I *D sky130_fd_sc_hd__xnor2_1
*I *148:A I *D sky130_fd_sc_hd__nor2_1
*I *146:Y O *D sky130_fd_sc_hd__nor2_1
*CAP
1 *149:B 0
2 *148:A 0
3 *146:Y 0
4 *23:31 0.000677167
5 *23:12 0.0014206
6 *23:6 0.000743435
7 *23:12 *26:8 0.000428691
8 *23:12 *39:16 0.000379422
9 *23:12 *40:14 0
10 *23:12 *40:20 0.000114083
11 *23:31 *29:70 0.0002263
12 *23:31 *30:14 6.7177e-06
13 *23:31 *31:14 0.000249127
14 *23:31 *33:10 1.05235e-05
15 *23:31 *34:12 9.85586e-06
16 *23:31 *34:26 0.000130595
17 *23:31 *35:10 0.000114092
18 *23:31 *37:10 0.000149137
19 *23:31 *37:25 0.000467311
20 *23:31 *44:20 0
21 *146:B *23:12 6.93553e-05
22 *21:10 *23:12 0.000286126
23 *21:34 *23:12 3.11878e-05
*RES
1 *146:Y *23:6 38 
2 *23:6 *23:12 32.9179 
3 *23:12 *148:A 23 
4 *23:12 *23:31 47.5864 
5 *23:31 *149:B 23 
*END

*D_NET *24 0.00250505
*CONN
*I *148:B I *D sky130_fd_sc_hd__nor2_1
*I *147:X O *D sky130_fd_sc_hd__and2_1
*CAP
1 *148:B 0
2 *147:X 4.00017e-05
3 *24:12 0.000427388
4 *24:8 0.00046739
5 *24:12 *27:8 0.000403127
6 *24:12 *33:10 0.00054648
7 *24:12 *34:26 2.47132e-05
8 *24:12 *35:10 6.10128e-05
9 *24:12 *36:18 0.000342125
10 *24:12 *44:20 4.17929e-05
11 *21:10 *24:12 0.000118736
12 *22:12 *24:8 3.22879e-05
*RES
1 *147:X *24:8 38.6214 
2 *24:8 *24:12 28.5264 
3 *24:12 *148:B 23 
*END

*D_NET *25 0.00442378
*CONN
*I *152:A I *D sky130_fd_sc_hd__and2_1
*I *154:B I *D sky130_fd_sc_hd__xor2_1
*I *150:X O *D sky130_fd_sc_hd__or4_1
*CAP
1 *152:A 0.000339249
2 *154:B 0
3 *150:X 0.000101377
4 *25:12 0.000781022
5 *25:8 0.00054315
6 *152:A *152:B 0.000309954
7 *152:A *157:A 0.000186606
8 *152:A *36:8 0.000738196
9 *152:A *37:33 0.000139352
10 *152:A *39:16 3.34247e-05
11 *152:A *40:8 1.03836e-05
12 *152:A *43:14 5.50106e-05
13 *152:A *44:10 0.000218329
14 *25:8 *41:25 0.000143768
15 *25:12 *29:16 0.000757538
16 *25:12 *29:20 1.58805e-05
17 *25:12 *41:14 0
18 *25:12 *43:14 3.64246e-05
19 *21:8 *152:A 1.41129e-05
*RES
1 *150:X *25:8 39.5743 
2 *25:8 *25:12 25.7093 
3 *25:12 *154:B 23 
4 *25:12 *152:A 35.5321 
*END

*D_NET *26 0.00217331
*CONN
*I *152:B I *D sky130_fd_sc_hd__and2_1
*I *151:Y O *D sky130_fd_sc_hd__o31ai_1
*CAP
1 *152:B 0.000102388
2 *151:Y 0.000199856
3 *26:8 0.000302244
4 *152:B *39:16 0.000111806
5 *152:B *44:10 9.5877e-05
6 *26:8 *39:16 6.42902e-05
7 *152:A *152:B 0.000309954
8 *21:34 *26:8 0.000558204
9 *23:12 *26:8 0.000428691
*RES
1 *151:Y *26:8 45.54 
2 *26:8 *152:B 41.48 
*END

*D_NET *27 0.00145078
*CONN
*I *153:A I *D sky130_fd_sc_hd__clkbuf_1
*I *152:X O *D sky130_fd_sc_hd__and2_1
*CAP
1 *153:A 0
2 *152:X 0.000209085
3 *27:8 0.000209085
4 *27:8 *31:14 0.000382583
5 *27:8 *35:10 0.000103009
6 *27:8 *44:20 0.000143895
7 *24:12 *27:8 0.000403127
*RES
1 *152:X *27:8 45.8921 
2 *27:8 *153:A 38 
*END

*D_NET *28 0.00361523
*CONN
*I *156:B I *D sky130_fd_sc_hd__nor2_1
*I *155:X O *D sky130_fd_sc_hd__and2_1
*CAP
1 *156:B 0
2 *155:X 5.39135e-05
3 *28:12 0.000572581
4 *28:8 0.000626494
5 *28:12 *30:14 0.00139238
6 *28:12 *32:12 0.000856703
7 *28:12 *34:26 0.000104531
8 *28:12 *35:10 0
9 out[2] *28:12 8.62073e-06
*RES
1 *155:X *28:8 38.6214 
2 *28:8 *28:12 34.5129 
3 *28:12 *156:B 23 
*END

*D_NET *29 0.00991101
*CONN
*I *155:B I *D sky130_fd_sc_hd__and2_1
*I *157:A I *D sky130_fd_sc_hd__clkbuf_1
*I *143:B I *D sky130_fd_sc_hd__or4_2
*I *142:A2 I *D sky130_fd_sc_hd__o31a_1
*I *140:B I *D sky130_fd_sc_hd__nor2_1
*I *158:X O *D sky130_fd_sc_hd__dlymetal6s2s_1
*CAP
1 *155:B 0
2 *157:A 5.03841e-05
3 *143:B 3.99974e-05
4 *142:A2 0.000117689
5 *140:B 0.00018587
6 *158:X 0.000380133
7 *29:70 0.000586481
8 *29:35 0.000893273
9 *29:20 0.0011054
10 *29:16 0.00108821
11 *29:10 0.0018205
12 *140:B *37:52 0.000274641
13 *142:A2 *142:A3 0.000258373
14 *142:A2 *32:12 0.000247678
15 *143:B *142:A3 0.000114092
16 *143:B *32:12 0.000103949
17 *157:A *40:8 0.000100543
18 *29:16 *150:A 0
19 *29:16 *40:14 0
20 *29:16 *40:36 0
21 *29:20 *43:14 4.97605e-05
22 *29:35 *169:A 0.00043154
23 *29:35 *30:8 5.50049e-05
24 *29:35 *37:52 0.000424455
25 *29:70 *37:10 0.000319474
26 *29:70 *37:25 2.32101e-05
27 *152:A *157:A 0.000186606
28 *156:A *140:B 2.46906e-05
29 *19:12 *140:B 2.93431e-05
30 *21:44 *29:16 0
31 *23:31 *29:70 0.0002263
32 *25:12 *29:16 0.000757538
33 *25:12 *29:20 1.58805e-05
*RES
1 *158:X *29:10 44.6907 
2 *29:10 *29:16 18.1664 
3 *29:16 *29:20 17.9621 
4 *29:20 *140:B 27.4536 
5 *29:20 *29:35 29.4586 
6 *29:35 *142:A2 41.9357 
7 *29:35 *143:B 39.5536 
8 *29:16 *157:A 40.0507 
9 *29:10 *29:70 27.5529 
10 *29:70 *155:B 23 
*END

*D_NET *30 0.00440714
*CONN
*I *166:A I *D sky130_fd_sc_hd__buf_2
*I *156:Y O *D sky130_fd_sc_hd__nor2_1
*CAP
1 *166:A 0
2 *156:Y 4.5791e-05
3 *30:14 0.000725976
4 *30:8 0.000771767
5 *30:14 *34:26 0.000169032
6 *30:14 *35:10 0
7 *30:14 *37:25 0.00124047
8 *30:14 *44:20 0
9 *23:31 *30:14 6.7177e-06
10 *28:12 *30:14 0.00139238
11 *29:35 *30:8 5.50049e-05
*RES
1 *156:Y *30:8 38.6214 
2 *30:8 *30:14 37.7236 
3 *30:14 *166:A 23 
*END

*D_NET *31 0.00443068
*CONN
*I *167:A I *D sky130_fd_sc_hd__buf_2
*I *141:Y O *D sky130_fd_sc_hd__xnor2_1
*CAP
1 *167:A 0
2 *141:Y 0.000745919
3 *31:14 0.00050151
4 *31:6 0.00124743
5 *31:6 *38:25 0.000650951
6 *31:14 *34:26 0.000104082
7 *31:14 *35:10 0.000326992
8 *31:14 *44:20 0.000222091
9 *23:31 *31:14 0.000249127
10 *27:8 *31:14 0.000382583
*RES
1 *141:Y *31:6 36.485 
2 *31:6 *31:14 44.1893 
3 *31:14 *167:A 23 
*END

*D_NET *32 0.00281245
*CONN
*I *168:A I *D sky130_fd_sc_hd__buf_2
*I *145:X O *D sky130_fd_sc_hd__clkbuf_1
*CAP
1 *168:A 0
2 *145:X 4.00017e-05
3 *32:12 0.000552882
4 *32:8 0.000592883
5 *32:12 *142:A3 6.56419e-05
6 *32:12 *35:10 0
7 *32:12 *36:18 6.28591e-05
8 *32:12 *38:25 0.000192087
9 out[3] *32:12 6.54744e-05
10 *142:A2 *32:12 0.000247678
11 *143:B *32:12 0.000103949
12 *22:12 *32:8 3.22879e-05
13 *28:12 *32:12 0.000856703
*RES
1 *145:X *32:8 38.6214 
2 *32:8 *32:12 30.9914 
3 *32:12 *168:A 23 
*END

*D_NET *33 0.00262841
*CONN
*I *169:A I *D sky130_fd_sc_hd__buf_2
*I *148:Y O *D sky130_fd_sc_hd__nor2_1
*CAP
1 *169:A 0.000181359
2 *148:Y 0.000305433
3 *33:10 0.000486792
4 *169:A *37:52 0.000136738
5 *33:10 *44:20 0.00032067
6 *156:A *169:A 9.7008e-05
7 *21:10 *33:10 6.6869e-05
8 *21:34 *33:10 4.49946e-05
9 *23:31 *33:10 1.05235e-05
10 *24:12 *33:10 0.00054648
11 *29:35 *169:A 0.00043154
*RES
1 *148:Y *33:10 46.1614 
2 *33:10 *169:A 43.4064 
*END

*D_NET *34 0.0051387
*CONN
*I *170:A I *D sky130_fd_sc_hd__buf_2
*I *149:Y O *D sky130_fd_sc_hd__xnor2_1
*CAP
1 *170:A 0
2 *149:Y 8.68216e-05
3 *34:26 0.00210753
4 *34:12 0.00219435
5 *34:12 *44:20 1.09886e-05
6 *34:26 *35:10 4.73716e-05
7 *34:26 *37:25 0.000148828
8 *23:31 *34:12 9.85586e-06
9 *23:31 *34:26 0.000130595
10 *24:12 *34:26 2.47132e-05
11 *28:12 *34:26 0.000104531
12 *30:14 *34:26 0.000169032
13 *31:14 *34:26 0.000104082
*RES
1 *149:Y *34:12 46.42 
2 *34:12 *34:26 43.89 
3 *34:26 *170:A 23 
*END

*D_NET *35 0.00321807
*CONN
*I *171:A I *D sky130_fd_sc_hd__buf_2
*I *153:X O *D sky130_fd_sc_hd__clkbuf_1
*CAP
1 *171:A 0
2 *153:X 0
3 *35:10 0.000884785
4 *35:6 0.000884785
5 *35:10 *142:A1 0.000136486
6 *35:10 *36:18 0.000202525
7 *35:10 *37:25 0.000141689
8 *35:10 *37:33 0.000185755
9 out[5] *35:10 0.000129571
10 *146:B *35:10 0
11 *21:10 *35:10 0
12 *23:31 *35:10 0.000114092
13 *24:12 *35:10 6.10128e-05
14 *27:8 *35:10 0.000103009
15 *28:12 *35:10 0
16 *30:14 *35:10 0
17 *31:14 *35:10 0.000326992
18 *32:12 *35:10 0
19 *34:26 *35:10 4.73716e-05
*RES
1 *153:X *35:6 38 
2 *35:6 *35:10 36.9779 
3 *35:10 *171:A 23 
*END

*D_NET *36 0.00428545
*CONN
*I *172:A I *D sky130_fd_sc_hd__clkbuf_4
*I *154:X O *D sky130_fd_sc_hd__xor2_1
*CAP
1 *172:A 6.37307e-05
2 *154:X 0.000338748
3 *36:18 0.000702783
4 *36:8 0.000977801
5 *36:18 *142:A1 0.000322167
6 *36:18 *37:33 0.000175612
7 out[5] *36:18 6.09632e-05
8 *152:A *36:8 0.000738196
9 *20:6 *36:18 0.000119426
10 *21:8 *36:8 0.000178517
11 *24:12 *36:18 0.000342125
12 *32:12 *36:18 6.28591e-05
13 *35:10 *36:18 0.000202525
*RES
1 *154:X *36:8 46.2443 
2 *36:8 *36:18 46.5507 
3 *36:18 *172:A 39.0979 
*END

*D_NET *37 0.0100876
*CONN
*I *143:A I *D sky130_fd_sc_hd__or4_2
*I *140:A I *D sky130_fd_sc_hd__nor2_1
*I *142:A1 I *D sky130_fd_sc_hd__o31a_1
*I *155:A I *D sky130_fd_sc_hd__and2_1
*I *159:X O *D sky130_fd_sc_hd__buf_1
*CAP
1 *143:A 8.45117e-05
2 *140:A 0
3 *142:A1 0.000299824
4 *155:A 0
5 *159:X 0.000839897
6 *37:52 0.000260846
7 *37:33 0.000733382
8 *37:25 0.000774464
9 *37:10 0.00135714
10 *143:A *39:16 6.99492e-05
11 *37:25 *39:16 0
12 *37:33 *39:16 9.24795e-06
13 *140:B *37:52 0.000274641
14 *152:A *37:33 0.000139352
15 *156:A *37:52 0.00117609
16 *169:A *37:52 0.000136738
17 *21:8 *143:A 1.40958e-05
18 *21:8 *37:33 0.000182826
19 *23:31 *37:10 0.000149137
20 *23:31 *37:25 0.000467311
21 *29:35 *37:52 0.000424455
22 *29:70 *37:10 0.000319474
23 *29:70 *37:25 2.32101e-05
24 *30:14 *37:25 0.00124047
25 *34:26 *37:25 0.000148828
26 *35:10 *142:A1 0.000136486
27 *35:10 *37:25 0.000141689
28 *35:10 *37:33 0.000185755
29 *36:18 *142:A1 0.000322167
30 *36:18 *37:33 0.000175612
*RES
1 *159:X *37:10 39.5093 
2 *37:10 *155:A 23 
3 *37:10 *37:25 48.415 
4 *37:25 *37:33 20.51 
5 *37:33 *142:A1 43.9036 
6 *37:33 *37:52 28.0086 
7 *37:52 *140:A 23 
8 *37:25 *143:A 24.5743 
*END

*D_NET *38 0.00640342
*CONN
*I *142:A3 I *D sky130_fd_sc_hd__o31a_1
*I *143:C I *D sky130_fd_sc_hd__or4_2
*I *141:A I *D sky130_fd_sc_hd__xnor2_1
*I *160:X O *D sky130_fd_sc_hd__buf_1
*CAP
1 *142:A3 0.000218083
2 *143:C 0
3 *141:A 0
4 *160:X 0.000523606
5 *38:25 0.00144695
6 *38:14 0.00131541
7 *38:10 0.000610149
8 *142:A3 *39:24 0.000444339
9 *38:10 *150:C 0.000121273
10 *38:25 *39:24 1.47563e-05
11 *142:A2 *142:A3 0.000258373
12 *143:B *142:A3 0.000114092
13 *160:A *38:10 6.17437e-06
14 *6:13 *38:10 0
15 *20:14 *38:10 0.000411299
16 *21:44 *38:10 1.02387e-05
17 *31:6 *38:25 0.000650951
18 *32:12 *142:A3 6.56419e-05
19 *32:12 *38:25 0.000192087
*RES
1 *160:X *38:10 49.8071 
2 *38:10 *38:14 16.0979 
3 *38:14 *141:A 23 
4 *38:14 *38:25 36.8121 
5 *38:25 *143:C 38 
6 *38:25 *142:A3 45.7264 
*END

*D_NET *39 0.00575992
*CONN
*I *143:D I *D sky130_fd_sc_hd__or4_2
*I *142:B1 I *D sky130_fd_sc_hd__o31a_1
*I *161:X O *D sky130_fd_sc_hd__clkbuf_1
*CAP
1 *143:D 0
2 *142:B1 0
3 *161:X 0.000566702
4 *39:24 0.000262193
5 *39:16 0.0012777
6 *39:8 0.00158221
7 *39:8 *151:A1 0.000401106
8 *39:8 *42:16 0.000344878
9 *39:16 *40:36 0
10 *39:16 *44:10 0.000177604
11 out[4] *39:24 2.02956e-05
12 *142:A3 *39:24 0.000444339
13 *143:A *39:16 6.99492e-05
14 *152:A *39:16 3.34247e-05
15 *152:B *39:16 0.000111806
16 *23:12 *39:16 0.000379422
17 *26:8 *39:16 6.42902e-05
18 *37:25 *39:16 0
19 *37:33 *39:16 9.24795e-06
20 *38:25 *39:24 1.47563e-05
*RES
1 *161:X *39:8 46.7207 
2 *39:8 *39:16 31.0536 
3 *39:16 *39:24 36.7529 
4 *39:24 *142:B1 23 
5 *39:16 *143:D 23 
*END

*D_NET *40 0.00785401
*CONN
*I *150:A I *D sky130_fd_sc_hd__or4_1
*I *151:A1 I *D sky130_fd_sc_hd__o31ai_1
*I *147:A I *D sky130_fd_sc_hd__and2_1
*I *146:A I *D sky130_fd_sc_hd__nor2_1
*I *162:X O *D sky130_fd_sc_hd__buf_1
*CAP
1 *150:A 0.000442735
2 *151:A1 0.000260085
3 *147:A 0.000266367
4 *146:A 0
5 *162:X 0.000622733
6 *40:36 0.00111756
7 *40:20 8.84458e-05
8 *40:14 0.00116178
9 *40:8 0.00184444
10 *150:A *41:25 0.00027191
11 *151:A1 *151:A2 1.99109e-05
12 *151:A1 *42:16 0.000446281
13 *40:8 *43:14 4.96717e-05
14 *146:B *40:20 2.04774e-05
15 *147:B *147:A 0.000270682
16 *152:A *40:8 1.03836e-05
17 *157:A *40:8 0.000100543
18 *21:36 *151:A1 3.17516e-05
19 *22:12 *147:A 8.85483e-05
20 *22:12 *40:14 0.000224504
21 *23:12 *40:14 0
22 *23:12 *40:20 0.000114083
23 *29:16 *150:A 0
24 *29:16 *40:14 0
25 *29:16 *40:36 0
26 *39:8 *151:A1 0.000401106
27 *39:16 *40:36 0
*RES
1 *162:X *40:8 45.2914 
2 *40:8 *40:14 29.4379 
3 *40:14 *40:20 32.2579 
4 *40:20 *146:A 23 
5 *40:14 *147:A 28.4064 
6 *40:8 *40:36 7.18786 
7 *40:36 *151:A1 45.7886 
8 *40:36 *150:A 47.0521 
*END

*D_NET *41 0.00606487
*CONN
*I *149:A I *D sky130_fd_sc_hd__xnor2_1
*I *151:A2 I *D sky130_fd_sc_hd__o31ai_1
*I *150:B I *D sky130_fd_sc_hd__or4_1
*I *163:X O *D sky130_fd_sc_hd__buf_1
*CAP
1 *149:A 0.000254849
2 *151:A2 0.000114507
3 *150:B 0
4 *163:X 5.56425e-05
5 *41:25 0.000987546
6 *41:14 0.00115885
7 *41:8 0.000596305
8 *149:A *44:20 0.000251716
9 *151:A2 *44:20 8.26672e-05
10 *41:14 *150:C 4.44699e-05
11 *41:14 *42:8 0.000295174
12 *150:A *41:25 0.00027191
13 *151:A1 *151:A2 1.99109e-05
14 *19:12 *41:14 0.000490604
15 *20:6 *41:8 9.67842e-05
16 *21:34 *151:A2 3.70094e-05
17 *21:44 *41:14 0.000114092
18 *22:12 *41:14 0.00104906
19 *25:8 *41:25 0.000143768
20 *25:12 *41:14 0
*RES
1 *163:X *41:8 39.0979 
2 *41:8 *41:14 32.7936 
3 *41:14 *150:B 23 
4 *41:14 *41:25 27.0764 
5 *41:25 *151:A2 40.6411 
6 *41:25 *149:A 44.4836 
*END

*D_NET *42 0.00602682
*CONN
*I *150:C I *D sky130_fd_sc_hd__or4_1
*I *151:B1 I *D sky130_fd_sc_hd__o31ai_1
*I *164:X O *D sky130_fd_sc_hd__buf_1
*CAP
1 *150:C 0.000171566
2 *151:B1 0
3 *164:X 0
4 *42:16 0.000362844
5 *42:8 0.00119142
6 *42:6 0.000657007
7 *42:8 *43:14 0
8 *151:A1 *42:16 0.000446281
9 *6:13 *42:16 0.000184415
10 *8:17 *42:8 0
11 *19:12 *42:8 0.000492826
12 *20:14 *42:8 0.0010563
13 *21:36 *42:16 0.000435331
14 *21:44 *150:C 0.000169674
15 *22:12 *42:8 5.3365e-05
16 *38:10 *150:C 0.000121273
17 *39:8 *42:16 0.000344878
18 *41:14 *150:C 4.44699e-05
19 *41:14 *42:8 0.000295174
*RES
1 *164:X *42:6 38 
2 *42:6 *42:8 21.2736 
3 *42:8 *42:16 27.6979 
4 *42:16 *151:B1 23 
5 *42:8 *150:C 42.4121 
*END

*D_NET *43 0.00212407
*CONN
*I *154:A I *D sky130_fd_sc_hd__xor2_1
*I *165:X O *D sky130_fd_sc_hd__clkbuf_1
*CAP
1 *154:A 0
2 *165:X 0.000196607
3 *43:14 0.000769996
4 *43:8 0.000966603
5 *152:A *43:14 5.50106e-05
6 *25:12 *43:14 3.64246e-05
7 *29:20 *43:14 4.97605e-05
8 *40:8 *43:14 4.96717e-05
9 *42:8 *43:14 0
*RES
1 *165:X *43:8 40.5271 
2 *43:8 *43:14 29.6243 
3 *43:14 *154:A 23 
*END

*D_NET *44 0.0044221
*CONN
*I *173:A I *D sky130_fd_sc_hd__buf_2
*I *157:X O *D sky130_fd_sc_hd__clkbuf_1
*CAP
1 *173:A 0
2 *157:X 0.000230683
3 *44:20 0.000941539
4 *44:10 0.00117222
5 *149:A *44:20 0.000251716
6 *151:A2 *44:20 8.26672e-05
7 *152:A *44:10 0.000218329
8 *152:B *44:10 9.5877e-05
9 *21:34 *44:20 0.000512022
10 *23:31 *44:20 0
11 *24:12 *44:20 4.17929e-05
12 *27:8 *44:20 0.000143895
13 *30:14 *44:20 0
14 *31:14 *44:20 0.000222091
15 *33:10 *44:20 0.00032067
16 *34:12 *44:20 1.09886e-05
17 *39:16 *44:10 0.000177604
*RES
1 *157:X *44:10 43.8829 
2 *44:10 *44:20 37.9307 
3 *44:20 *173:A 23 
*END
