*SPEF "ieee 1481-1999"
*DESIGN "alu"
*DATE "08:57:55 Sunday May 04, 2025"
*VENDOR "The OpenROAD Project"
*PROGRAM "OpenROAD"
*VERSION "b16bda7e82721d10566ff7e2b68f1ff0be9f9e38"
*DESIGN_FLOW "NAME_SCOPE LOCAL" "PIN_CAP NONE"
*DIVIDER /
*DELIMITER :
*BUS_DELIMITER []
*T_UNIT 1 NS
*C_UNIT 1 PF
*R_UNIT 1 OHM
*L_UNIT 1 HENRY

*NAME_MAP
*1 A[0]
*2 A[1]
*3 A[2]
*4 A[3]
*5 A[4]
*6 A[5]
*7 A[6]
*8 A[7]
*9 B[0]
*10 B[1]
*11 B[2]
*12 B[3]
*13 B[4]
*14 B[5]
*15 B[6]
*16 B[7]
*19 opcode[0]
*20 opcode[1]
*21 opcode[2]
*22 out[0]
*23 out[1]
*24 out[2]
*25 out[3]
*26 out[4]
*27 out[5]
*28 out[6]
*29 out[7]
*30 _000_
*31 _001_
*32 _002_
*33 _003_
*34 _004_
*35 _005_
*36 _006_
*37 _007_
*38 _008_
*39 _009_
*40 _010_
*41 _011_
*42 _012_
*43 _013_
*44 _014_
*45 _015_
*46 _016_
*47 _017_
*48 _018_
*49 _019_
*50 _020_
*51 _021_
*52 _022_
*53 _023_
*54 _024_
*55 _025_
*56 _026_
*57 _027_
*58 _028_
*59 _029_
*60 _030_
*61 _031_
*62 _032_
*63 _033_
*64 _034_
*65 _035_
*66 _036_
*67 _037_
*68 _038_
*69 _039_
*70 _040_
*71 _041_
*72 _042_
*73 _043_
*74 _044_
*75 _045_
*76 _046_
*77 _047_
*78 _048_
*79 _049_
*80 _050_
*81 _051_
*82 _052_
*83 _053_
*84 _054_
*85 _055_
*86 _056_
*87 _057_
*88 _058_
*89 _059_
*90 _060_
*91 _061_
*92 _062_
*93 _063_
*94 _064_
*95 _065_
*96 _066_
*97 _067_
*98 _068_
*99 _069_
*100 _070_
*101 _071_
*102 _072_
*103 _073_
*104 _074_
*105 _075_
*106 _076_
*107 _077_
*108 _078_
*109 _079_
*110 _080_
*111 _081_
*112 _082_
*113 _083_
*114 _084_
*115 _085_
*116 _086_
*117 _087_
*118 _088_
*119 _089_
*120 _090_
*121 _091_
*122 _092_
*123 _093_
*124 _094_
*125 _095_
*126 _096_
*127 _097_
*128 _098_
*129 _099_
*130 _100_
*131 _101_
*132 _102_
*133 _103_
*134 _104_
*135 _105_
*136 _106_
*137 _107_
*138 _108_
*139 _109_
*140 _110_
*141 _111_
*142 _112_
*143 _113_
*144 _114_
*145 _115_
*146 _116_
*147 _117_
*148 _118_
*149 _119_
*150 _120_
*151 _121_
*152 _122_
*153 _123_
*154 _124_
*155 _125_
*156 _126_
*157 _127_
*158 _128_
*159 _129_
*160 _130_
*161 _131_
*162 _132_
*163 _133_
*164 _134_
*165 _135_
*166 _136_
*167 _137_
*168 _138_
*169 _139_
*170 _140_
*171 _141_
*172 _142_
*173 _143_
*174 _144_
*175 _145_
*176 _146_
*177 _147_
*178 _148_
*179 _149_
*180 _150_
*181 _151_
*182 _152_
*183 _153_
*184 _154_
*185 _155_
*186 _156_
*187 _157_
*188 _158_
*189 _159_
*190 _160_
*191 _161_
*192 _162_
*193 _163_
*194 _164_
*195 _165_
*196 _166_
*197 _167_
*198 _168_
*199 _169_
*200 net1
*201 net10
*202 net11
*203 net12
*204 net13
*205 net14
*206 net15
*207 net16
*208 net17
*209 net18
*210 net19
*211 net2
*212 net20
*213 net21
*214 net22
*215 net23
*216 net24
*217 net25
*218 net26
*219 net27
*220 net28
*221 net29
*222 net3
*223 net30
*224 net31
*225 net32
*226 net33
*227 net4
*228 net5
*229 net6
*230 net7
*231 net8
*232 net9
*233 ANTENNA_1
*234 ANTENNA_2
*235 ANTENNA_3
*236 FILLER_0_0_109
*237 FILLER_0_0_113
*238 FILLER_0_0_125
*239 FILLER_0_0_133
*240 FILLER_0_0_139
*241 FILLER_0_0_15
*242 FILLER_0_0_151
*243 FILLER_0_0_163
*244 FILLER_0_0_167
*245 FILLER_0_0_169
*246 FILLER_0_0_181
*247 FILLER_0_0_185
*248 FILLER_0_0_27
*249 FILLER_0_0_29
*250 FILLER_0_0_3
*251 FILLER_0_0_41
*252 FILLER_0_0_53
*253 FILLER_0_0_57
*254 FILLER_0_0_69
*255 FILLER_0_0_81
*256 FILLER_0_0_85
*257 FILLER_0_0_97
*258 FILLER_0_10_101
*259 FILLER_0_10_107
*260 FILLER_0_10_115
*261 FILLER_0_10_122
*262 FILLER_0_10_134
*263 FILLER_0_10_146
*264 FILLER_0_10_158
*265 FILLER_0_10_170
*266 FILLER_0_10_179
*267 FILLER_0_10_19
*268 FILLER_0_10_27
*269 FILLER_0_10_29
*270 FILLER_0_10_41
*271 FILLER_0_10_53
*272 FILLER_0_10_57
*273 FILLER_0_10_65
*274 FILLER_0_10_7
*275 FILLER_0_10_77
*276 FILLER_0_10_83
*277 FILLER_0_10_85
*278 FILLER_0_10_97
*279 FILLER_0_11_102
*280 FILLER_0_11_110
*281 FILLER_0_11_113
*282 FILLER_0_11_125
*283 FILLER_0_11_137
*284 FILLER_0_11_145
*285 FILLER_0_11_153
*286 FILLER_0_11_160
*287 FILLER_0_11_169
*288 FILLER_0_11_18
*289 FILLER_0_11_181
*290 FILLER_0_11_189
*291 FILLER_0_11_30
*292 FILLER_0_11_38
*293 FILLER_0_11_44
*294 FILLER_0_11_57
*295 FILLER_0_11_6
*296 FILLER_0_11_69
*297 FILLER_0_11_81
*298 FILLER_0_11_89
*299 FILLER_0_11_94
*300 FILLER_0_12_100
*301 FILLER_0_12_109
*302 FILLER_0_12_11
*303 FILLER_0_12_122
*304 FILLER_0_12_134
*305 FILLER_0_12_141
*306 FILLER_0_12_153
*307 FILLER_0_12_160
*308 FILLER_0_12_172
*309 FILLER_0_12_184
*310 FILLER_0_12_19
*311 FILLER_0_12_23
*312 FILLER_0_12_27
*313 FILLER_0_12_29
*314 FILLER_0_12_39
*315 FILLER_0_12_47
*316 FILLER_0_12_55
*317 FILLER_0_12_67
*318 FILLER_0_12_79
*319 FILLER_0_12_83
*320 FILLER_0_12_85
*321 FILLER_0_13_105
*322 FILLER_0_13_111
*323 FILLER_0_13_113
*324 FILLER_0_13_123
*325 FILLER_0_13_144
*326 FILLER_0_13_15
*327 FILLER_0_13_152
*328 FILLER_0_13_160
*329 FILLER_0_13_169
*330 FILLER_0_13_181
*331 FILLER_0_13_189
*332 FILLER_0_13_24
*333 FILLER_0_13_34
*334 FILLER_0_13_40
*335 FILLER_0_13_52
*336 FILLER_0_13_57
*337 FILLER_0_13_69
*338 FILLER_0_13_7
*339 FILLER_0_13_81
*340 FILLER_0_13_93
*341 FILLER_0_14_107
*342 FILLER_0_14_119
*343 FILLER_0_14_131
*344 FILLER_0_14_139
*345 FILLER_0_14_141
*346 FILLER_0_14_153
*347 FILLER_0_14_165
*348 FILLER_0_14_177
*349 FILLER_0_14_189
*350 FILLER_0_14_19
*351 FILLER_0_14_23
*352 FILLER_0_14_27
*353 FILLER_0_14_29
*354 FILLER_0_14_41
*355 FILLER_0_14_53
*356 FILLER_0_14_65
*357 FILLER_0_14_7
*358 FILLER_0_14_77
*359 FILLER_0_14_83
*360 FILLER_0_14_95
*361 FILLER_0_15_111
*362 FILLER_0_15_113
*363 FILLER_0_15_125
*364 FILLER_0_15_137
*365 FILLER_0_15_149
*366 FILLER_0_15_15
*367 FILLER_0_15_161
*368 FILLER_0_15_167
*369 FILLER_0_15_169
*370 FILLER_0_15_181
*371 FILLER_0_15_27
*372 FILLER_0_15_3
*373 FILLER_0_15_36
*374 FILLER_0_15_50
*375 FILLER_0_15_64
*376 FILLER_0_15_76
*377 FILLER_0_15_84
*378 FILLER_0_15_99
*379 FILLER_0_16_108
*380 FILLER_0_16_120
*381 FILLER_0_16_132
*382 FILLER_0_16_141
*383 FILLER_0_16_153
*384 FILLER_0_16_165
*385 FILLER_0_16_177
*386 FILLER_0_16_185
*387 FILLER_0_16_19
*388 FILLER_0_16_27
*389 FILLER_0_16_36
*390 FILLER_0_16_48
*391 FILLER_0_16_56
*392 FILLER_0_16_63
*393 FILLER_0_16_7
*394 FILLER_0_16_73
*395 FILLER_0_16_81
*396 FILLER_0_16_96
*397 FILLER_0_17_101
*398 FILLER_0_17_109
*399 FILLER_0_17_113
*400 FILLER_0_17_125
*401 FILLER_0_17_137
*402 FILLER_0_17_149
*403 FILLER_0_17_15
*404 FILLER_0_17_155
*405 FILLER_0_17_159
*406 FILLER_0_17_167
*407 FILLER_0_17_169
*408 FILLER_0_17_173
*409 FILLER_0_17_22
*410 FILLER_0_17_28
*411 FILLER_0_17_35
*412 FILLER_0_17_47
*413 FILLER_0_17_55
*414 FILLER_0_17_57
*415 FILLER_0_17_67
*416 FILLER_0_17_73
*417 FILLER_0_17_85
*418 FILLER_0_17_9
*419 FILLER_0_17_93
*420 FILLER_0_18_107
*421 FILLER_0_18_121
*422 FILLER_0_18_125
*423 FILLER_0_18_134
*424 FILLER_0_18_141
*425 FILLER_0_18_15
*426 FILLER_0_18_153
*427 FILLER_0_18_165
*428 FILLER_0_18_186
*429 FILLER_0_18_27
*430 FILLER_0_18_29
*431 FILLER_0_18_3
*432 FILLER_0_18_40
*433 FILLER_0_18_55
*434 FILLER_0_18_67
*435 FILLER_0_18_79
*436 FILLER_0_18_83
*437 FILLER_0_18_85
*438 FILLER_0_18_97
*439 FILLER_0_19_103
*440 FILLER_0_19_107
*441 FILLER_0_19_111
*442 FILLER_0_19_113
*443 FILLER_0_19_130
*444 FILLER_0_19_142
*445 FILLER_0_19_15
*446 FILLER_0_19_154
*447 FILLER_0_19_160
*448 FILLER_0_19_165
*449 FILLER_0_19_169
*450 FILLER_0_19_175
*451 FILLER_0_19_24
*452 FILLER_0_19_36
*453 FILLER_0_19_44
*454 FILLER_0_19_55
*455 FILLER_0_19_57
*456 FILLER_0_19_69
*457 FILLER_0_19_7
*458 FILLER_0_19_91
*459 FILLER_0_1_107
*460 FILLER_0_1_111
*461 FILLER_0_1_113
*462 FILLER_0_1_125
*463 FILLER_0_1_137
*464 FILLER_0_1_149
*465 FILLER_0_1_162
*466 FILLER_0_1_182
*467 FILLER_0_1_19
*468 FILLER_0_1_25
*469 FILLER_0_1_31
*470 FILLER_0_1_42
*471 FILLER_0_1_50
*472 FILLER_0_1_57
*473 FILLER_0_1_7
*474 FILLER_0_1_95
*475 FILLER_0_20_120
*476 FILLER_0_20_132
*477 FILLER_0_20_141
*478 FILLER_0_20_153
*479 FILLER_0_20_165
*480 FILLER_0_20_177
*481 FILLER_0_20_19
*482 FILLER_0_20_27
*483 FILLER_0_20_29
*484 FILLER_0_20_41
*485 FILLER_0_20_49
*486 FILLER_0_20_55
*487 FILLER_0_20_67
*488 FILLER_0_20_7
*489 FILLER_0_20_74
*490 FILLER_0_20_82
*491 FILLER_0_20_85
*492 FILLER_0_20_99
*493 FILLER_0_21_105
*494 FILLER_0_21_111
*495 FILLER_0_21_113
*496 FILLER_0_21_125
*497 FILLER_0_21_137
*498 FILLER_0_21_149
*499 FILLER_0_21_15
*500 FILLER_0_21_160
*501 FILLER_0_21_176
*502 FILLER_0_21_185
*503 FILLER_0_21_21
*504 FILLER_0_21_25
*505 FILLER_0_21_3
*506 FILLER_0_21_37
*507 FILLER_0_21_43
*508 FILLER_0_21_55
*509 FILLER_0_21_57
*510 FILLER_0_21_69
*511 FILLER_0_21_81
*512 FILLER_0_21_93
*513 FILLER_0_22_102
*514 FILLER_0_22_114
*515 FILLER_0_22_12
*516 FILLER_0_22_126
*517 FILLER_0_22_138
*518 FILLER_0_22_141
*519 FILLER_0_22_153
*520 FILLER_0_22_165
*521 FILLER_0_22_177
*522 FILLER_0_22_45
*523 FILLER_0_22_53
*524 FILLER_0_22_63
*525 FILLER_0_22_75
*526 FILLER_0_22_83
*527 FILLER_0_22_90
*528 FILLER_0_23_108
*529 FILLER_0_23_124
*530 FILLER_0_23_136
*531 FILLER_0_23_144
*532 FILLER_0_23_153
*533 FILLER_0_23_16
*534 FILLER_0_23_165
*535 FILLER_0_23_169
*536 FILLER_0_23_181
*537 FILLER_0_23_189
*538 FILLER_0_23_28
*539 FILLER_0_23_40
*540 FILLER_0_23_52
*541 FILLER_0_23_66
*542 FILLER_0_23_85
*543 FILLER_0_23_96
*544 FILLER_0_24_107
*545 FILLER_0_24_120
*546 FILLER_0_24_132
*547 FILLER_0_24_141
*548 FILLER_0_24_153
*549 FILLER_0_24_165
*550 FILLER_0_24_177
*551 FILLER_0_24_183
*552 FILLER_0_24_188
*553 FILLER_0_24_29
*554 FILLER_0_24_49
*555 FILLER_0_24_61
*556 FILLER_0_24_73
*557 FILLER_0_24_81
*558 FILLER_0_24_85
*559 FILLER_0_24_93
*560 FILLER_0_25_111
*561 FILLER_0_25_120
*562 FILLER_0_25_132
*563 FILLER_0_25_144
*564 FILLER_0_25_156
*565 FILLER_0_25_169
*566 FILLER_0_25_181
*567 FILLER_0_25_189
*568 FILLER_0_25_3
*569 FILLER_0_25_31
*570 FILLER_0_25_35
*571 FILLER_0_25_43
*572 FILLER_0_25_55
*573 FILLER_0_25_57
*574 FILLER_0_25_66
*575 FILLER_0_25_70
*576 FILLER_0_25_74
*577 FILLER_0_25_86
*578 FILLER_0_26_100
*579 FILLER_0_26_120
*580 FILLER_0_26_132
*581 FILLER_0_26_141
*582 FILLER_0_26_15
*583 FILLER_0_26_153
*584 FILLER_0_26_165
*585 FILLER_0_26_177
*586 FILLER_0_26_185
*587 FILLER_0_26_27
*588 FILLER_0_26_29
*589 FILLER_0_26_43
*590 FILLER_0_26_55
*591 FILLER_0_26_67
*592 FILLER_0_26_79
*593 FILLER_0_26_83
*594 FILLER_0_26_85
*595 FILLER_0_27_109
*596 FILLER_0_27_117
*597 FILLER_0_27_129
*598 FILLER_0_27_13
*599 FILLER_0_27_137
*600 FILLER_0_27_141
*601 FILLER_0_27_153
*602 FILLER_0_27_165
*603 FILLER_0_27_169
*604 FILLER_0_27_179
*605 FILLER_0_27_184
*606 FILLER_0_27_22
*607 FILLER_0_27_29
*608 FILLER_0_27_33
*609 FILLER_0_27_41
*610 FILLER_0_27_53
*611 FILLER_0_27_57
*612 FILLER_0_27_69
*613 FILLER_0_27_81
*614 FILLER_0_27_85
*615 FILLER_0_27_97
*616 FILLER_0_2_109
*617 FILLER_0_2_11
*618 FILLER_0_2_128
*619 FILLER_0_2_141
*620 FILLER_0_2_147
*621 FILLER_0_2_159
*622 FILLER_0_2_17
*623 FILLER_0_2_171
*624 FILLER_0_2_183
*625 FILLER_0_2_188
*626 FILLER_0_2_25
*627 FILLER_0_2_29
*628 FILLER_0_2_41
*629 FILLER_0_2_53
*630 FILLER_0_2_65
*631 FILLER_0_2_7
*632 FILLER_0_2_77
*633 FILLER_0_2_83
*634 FILLER_0_2_85
*635 FILLER_0_2_97
*636 FILLER_0_3_107
*637 FILLER_0_3_111
*638 FILLER_0_3_113
*639 FILLER_0_3_125
*640 FILLER_0_3_137
*641 FILLER_0_3_149
*642 FILLER_0_3_15
*643 FILLER_0_3_161
*644 FILLER_0_3_167
*645 FILLER_0_3_169
*646 FILLER_0_3_177
*647 FILLER_0_3_27
*648 FILLER_0_3_3
*649 FILLER_0_3_35
*650 FILLER_0_3_47
*651 FILLER_0_3_55
*652 FILLER_0_3_57
*653 FILLER_0_3_61
*654 FILLER_0_3_71
*655 FILLER_0_3_83
*656 FILLER_0_3_95
*657 FILLER_0_4_103
*658 FILLER_0_4_111
*659 FILLER_0_4_124
*660 FILLER_0_4_136
*661 FILLER_0_4_141
*662 FILLER_0_4_153
*663 FILLER_0_4_165
*664 FILLER_0_4_177
*665 FILLER_0_4_185
*666 FILLER_0_4_189
*667 FILLER_0_4_19
*668 FILLER_0_4_23
*669 FILLER_0_4_44
*670 FILLER_0_4_56
*671 FILLER_0_4_68
*672 FILLER_0_4_7
*673 FILLER_0_4_85
*674 FILLER_0_4_93
*675 FILLER_0_5_108
*676 FILLER_0_5_113
*677 FILLER_0_5_125
*678 FILLER_0_5_137
*679 FILLER_0_5_154
*680 FILLER_0_5_166
*681 FILLER_0_5_169
*682 FILLER_0_5_181
*683 FILLER_0_5_189
*684 FILLER_0_5_21
*685 FILLER_0_5_33
*686 FILLER_0_5_54
*687 FILLER_0_5_57
*688 FILLER_0_5_71
*689 FILLER_0_5_83
*690 FILLER_0_5_9
*691 FILLER_0_5_91
*692 FILLER_0_5_96
*693 FILLER_0_6_10
*694 FILLER_0_6_111
*695 FILLER_0_6_123
*696 FILLER_0_6_135
*697 FILLER_0_6_139
*698 FILLER_0_6_141
*699 FILLER_0_6_153
*700 FILLER_0_6_161
*701 FILLER_0_6_165
*702 FILLER_0_6_173
*703 FILLER_0_6_179
*704 FILLER_0_6_187
*705 FILLER_0_6_22
*706 FILLER_0_6_29
*707 FILLER_0_6_3
*708 FILLER_0_6_41
*709 FILLER_0_6_47
*710 FILLER_0_6_72
*711 FILLER_0_6_76
*712 FILLER_0_7_100
*713 FILLER_0_7_113
*714 FILLER_0_7_130
*715 FILLER_0_7_139
*716 FILLER_0_7_151
*717 FILLER_0_7_166
*718 FILLER_0_7_169
*719 FILLER_0_7_181
*720 FILLER_0_7_188
*721 FILLER_0_7_19
*722 FILLER_0_7_31
*723 FILLER_0_7_43
*724 FILLER_0_7_51
*725 FILLER_0_7_54
*726 FILLER_0_7_65
*727 FILLER_0_7_7
*728 FILLER_0_7_76
*729 FILLER_0_7_88
*730 FILLER_0_8_109
*731 FILLER_0_8_121
*732 FILLER_0_8_133
*733 FILLER_0_8_139
*734 FILLER_0_8_141
*735 FILLER_0_8_153
*736 FILLER_0_8_165
*737 FILLER_0_8_173
*738 FILLER_0_8_180
*739 FILLER_0_8_19
*740 FILLER_0_8_27
*741 FILLER_0_8_36
*742 FILLER_0_8_42
*743 FILLER_0_8_55
*744 FILLER_0_8_67
*745 FILLER_0_8_7
*746 FILLER_0_8_79
*747 FILLER_0_8_83
*748 FILLER_0_8_85
*749 FILLER_0_8_97
*750 FILLER_0_9_105
*751 FILLER_0_9_111
*752 FILLER_0_9_118
*753 FILLER_0_9_130
*754 FILLER_0_9_142
*755 FILLER_0_9_15
*756 FILLER_0_9_150
*757 FILLER_0_9_166
*758 FILLER_0_9_169
*759 FILLER_0_9_185
*760 FILLER_0_9_189
*761 FILLER_0_9_27
*762 FILLER_0_9_3
*763 FILLER_0_9_39
*764 FILLER_0_9_51
*765 FILLER_0_9_55
*766 FILLER_0_9_57
*767 FILLER_0_9_65
*768 FILLER_0_9_71
*769 FILLER_0_9_83
*770 FILLER_0_9_93
*771 PHY_EDGE_ROW_0_Left_28
*772 PHY_EDGE_ROW_0_Right_0
*773 PHY_EDGE_ROW_10_Left_38
*774 PHY_EDGE_ROW_10_Right_10
*775 PHY_EDGE_ROW_11_Left_39
*776 PHY_EDGE_ROW_11_Right_11
*777 PHY_EDGE_ROW_12_Left_40
*778 PHY_EDGE_ROW_12_Right_12
*779 PHY_EDGE_ROW_13_Left_41
*780 PHY_EDGE_ROW_13_Right_13
*781 PHY_EDGE_ROW_14_Left_42
*782 PHY_EDGE_ROW_14_Right_14
*783 PHY_EDGE_ROW_15_Left_43
*784 PHY_EDGE_ROW_15_Right_15
*785 PHY_EDGE_ROW_16_Left_44
*786 PHY_EDGE_ROW_16_Right_16
*787 PHY_EDGE_ROW_17_Left_45
*788 PHY_EDGE_ROW_17_Right_17
*789 PHY_EDGE_ROW_18_Left_46
*790 PHY_EDGE_ROW_18_Right_18
*791 PHY_EDGE_ROW_19_Left_47
*792 PHY_EDGE_ROW_19_Right_19
*793 PHY_EDGE_ROW_1_Left_29
*794 PHY_EDGE_ROW_1_Right_1
*795 PHY_EDGE_ROW_20_Left_48
*796 PHY_EDGE_ROW_20_Right_20
*797 PHY_EDGE_ROW_21_Left_49
*798 PHY_EDGE_ROW_21_Right_21
*799 PHY_EDGE_ROW_22_Left_50
*800 PHY_EDGE_ROW_22_Right_22
*801 PHY_EDGE_ROW_23_Left_51
*802 PHY_EDGE_ROW_23_Right_23
*803 PHY_EDGE_ROW_24_Left_52
*804 PHY_EDGE_ROW_24_Right_24
*805 PHY_EDGE_ROW_25_Left_53
*806 PHY_EDGE_ROW_25_Right_25
*807 PHY_EDGE_ROW_26_Left_54
*808 PHY_EDGE_ROW_26_Right_26
*809 PHY_EDGE_ROW_27_Left_55
*810 PHY_EDGE_ROW_27_Right_27
*811 PHY_EDGE_ROW_2_Left_30
*812 PHY_EDGE_ROW_2_Right_2
*813 PHY_EDGE_ROW_3_Left_31
*814 PHY_EDGE_ROW_3_Right_3
*815 PHY_EDGE_ROW_4_Left_32
*816 PHY_EDGE_ROW_4_Right_4
*817 PHY_EDGE_ROW_5_Left_33
*818 PHY_EDGE_ROW_5_Right_5
*819 PHY_EDGE_ROW_6_Left_34
*820 PHY_EDGE_ROW_6_Right_6
*821 PHY_EDGE_ROW_7_Left_35
*822 PHY_EDGE_ROW_7_Right_7
*823 PHY_EDGE_ROW_8_Left_36
*824 PHY_EDGE_ROW_8_Right_8
*825 PHY_EDGE_ROW_9_Left_37
*826 PHY_EDGE_ROW_9_Right_9
*827 TAP_TAPCELL_ROW_0_56
*828 TAP_TAPCELL_ROW_0_57
*829 TAP_TAPCELL_ROW_0_58
*830 TAP_TAPCELL_ROW_0_59
*831 TAP_TAPCELL_ROW_0_60
*832 TAP_TAPCELL_ROW_0_61
*833 TAP_TAPCELL_ROW_10_89
*834 TAP_TAPCELL_ROW_10_90
*835 TAP_TAPCELL_ROW_10_91
*836 TAP_TAPCELL_ROW_11_92
*837 TAP_TAPCELL_ROW_11_93
*838 TAP_TAPCELL_ROW_11_94
*839 TAP_TAPCELL_ROW_12_95
*840 TAP_TAPCELL_ROW_12_96
*841 TAP_TAPCELL_ROW_12_97
*842 TAP_TAPCELL_ROW_13_100
*843 TAP_TAPCELL_ROW_13_98
*844 TAP_TAPCELL_ROW_13_99
*845 TAP_TAPCELL_ROW_14_101
*846 TAP_TAPCELL_ROW_14_102
*847 TAP_TAPCELL_ROW_14_103
*848 TAP_TAPCELL_ROW_15_104
*849 TAP_TAPCELL_ROW_15_105
*850 TAP_TAPCELL_ROW_15_106
*851 TAP_TAPCELL_ROW_16_107
*852 TAP_TAPCELL_ROW_16_108
*853 TAP_TAPCELL_ROW_16_109
*854 TAP_TAPCELL_ROW_17_110
*855 TAP_TAPCELL_ROW_17_111
*856 TAP_TAPCELL_ROW_17_112
*857 TAP_TAPCELL_ROW_18_113
*858 TAP_TAPCELL_ROW_18_114
*859 TAP_TAPCELL_ROW_18_115
*860 TAP_TAPCELL_ROW_19_116
*861 TAP_TAPCELL_ROW_19_117
*862 TAP_TAPCELL_ROW_19_118
*863 TAP_TAPCELL_ROW_1_62
*864 TAP_TAPCELL_ROW_1_63
*865 TAP_TAPCELL_ROW_1_64
*866 TAP_TAPCELL_ROW_20_119
*867 TAP_TAPCELL_ROW_20_120
*868 TAP_TAPCELL_ROW_20_121
*869 TAP_TAPCELL_ROW_21_122
*870 TAP_TAPCELL_ROW_21_123
*871 TAP_TAPCELL_ROW_21_124
*872 TAP_TAPCELL_ROW_22_125
*873 TAP_TAPCELL_ROW_22_126
*874 TAP_TAPCELL_ROW_22_127
*875 TAP_TAPCELL_ROW_23_128
*876 TAP_TAPCELL_ROW_23_129
*877 TAP_TAPCELL_ROW_23_130
*878 TAP_TAPCELL_ROW_24_131
*879 TAP_TAPCELL_ROW_24_132
*880 TAP_TAPCELL_ROW_24_133
*881 TAP_TAPCELL_ROW_25_134
*882 TAP_TAPCELL_ROW_25_135
*883 TAP_TAPCELL_ROW_25_136
*884 TAP_TAPCELL_ROW_26_137
*885 TAP_TAPCELL_ROW_26_138
*886 TAP_TAPCELL_ROW_26_139
*887 TAP_TAPCELL_ROW_27_140
*888 TAP_TAPCELL_ROW_27_141
*889 TAP_TAPCELL_ROW_27_142
*890 TAP_TAPCELL_ROW_27_143
*891 TAP_TAPCELL_ROW_27_144
*892 TAP_TAPCELL_ROW_27_145
*893 TAP_TAPCELL_ROW_2_65
*894 TAP_TAPCELL_ROW_2_66
*895 TAP_TAPCELL_ROW_2_67
*896 TAP_TAPCELL_ROW_3_68
*897 TAP_TAPCELL_ROW_3_69
*898 TAP_TAPCELL_ROW_3_70
*899 TAP_TAPCELL_ROW_4_71
*900 TAP_TAPCELL_ROW_4_72
*901 TAP_TAPCELL_ROW_4_73
*902 TAP_TAPCELL_ROW_5_74
*903 TAP_TAPCELL_ROW_5_75
*904 TAP_TAPCELL_ROW_5_76
*905 TAP_TAPCELL_ROW_6_77
*906 TAP_TAPCELL_ROW_6_78
*907 TAP_TAPCELL_ROW_6_79
*908 TAP_TAPCELL_ROW_7_80
*909 TAP_TAPCELL_ROW_7_81
*910 TAP_TAPCELL_ROW_7_82
*911 TAP_TAPCELL_ROW_8_83
*912 TAP_TAPCELL_ROW_8_84
*913 TAP_TAPCELL_ROW_8_85
*914 TAP_TAPCELL_ROW_9_86
*915 TAP_TAPCELL_ROW_9_87
*916 TAP_TAPCELL_ROW_9_88
*917 _170_
*918 _171_
*919 _172_
*920 _173_
*921 _174_
*922 _175_
*923 _176_
*924 _177_
*925 _178_
*926 _179_
*927 _180_
*928 _181_
*929 _182_
*930 _183_
*931 _184_
*932 _185_
*933 _186_
*934 _187_
*935 _188_
*936 _189_
*937 _190_
*938 _191_
*939 _192_
*940 _193_
*941 _194_
*942 _195_
*943 _196_
*944 _197_
*945 _198_
*946 _199_
*947 _200_
*948 _201_
*949 _202_
*950 _203_
*951 _204_
*952 _205_
*953 _206_
*954 _207_
*955 _208_
*956 _209_
*957 _210_
*958 _211_
*959 _212_
*960 _213_
*961 _214_
*962 _215_
*963 _216_
*964 _217_
*965 _218_
*966 _219_
*967 _220_
*968 _221_
*969 _222_
*970 _223_
*971 _224_
*972 _225_
*973 _226_
*974 _227_
*975 _228_
*976 _229_
*977 _230_
*978 _231_
*979 _232_
*980 _233_
*981 _234_
*982 _235_
*983 _236_
*984 _237_
*985 _238_
*986 _239_
*987 _240_
*988 _241_
*989 _242_
*990 _243_
*991 _244_
*992 _245_
*993 _246_
*994 _247_
*995 _248_
*996 _249_
*997 _250_
*998 _251_
*999 _252_
*1000 _253_
*1001 _254_
*1002 _255_
*1003 _256_
*1004 _257_
*1005 _258_
*1006 _259_
*1007 _260_
*1008 _261_
*1009 _262_
*1010 _263_
*1011 _264_
*1012 _265_
*1013 _266_
*1014 _267_
*1015 _268_
*1016 _269_
*1017 _270_
*1018 _271_
*1019 _272_
*1020 _273_
*1021 _274_
*1022 _275_
*1023 _276_
*1024 _277_
*1025 _278_
*1026 _279_
*1027 _280_
*1028 _281_
*1029 _282_
*1030 _283_
*1031 _284_
*1032 _285_
*1033 _286_
*1034 _287_
*1035 _288_
*1036 _289_
*1037 _290_
*1038 _291_
*1039 _292_
*1040 _293_
*1041 _294_
*1042 _295_
*1043 _296_
*1044 _297_
*1045 _298_
*1046 _299_
*1047 _300_
*1048 _301_
*1049 _302_
*1050 _303_
*1051 _304_
*1052 _305_
*1053 _306_
*1054 _307_
*1055 _308_
*1056 _309_
*1057 _310_
*1058 _311_
*1059 _312_
*1060 _313_
*1061 _314_
*1062 _315_
*1063 _316_
*1064 _317_
*1065 _318_
*1066 _319_
*1067 _320_
*1068 _321_
*1069 _322_
*1070 _323_
*1071 _324_
*1072 _325_
*1073 _326_
*1074 _327_
*1075 _328_
*1076 _329_
*1077 _330_
*1078 _331_
*1079 _332_
*1080 _333_
*1081 _334_
*1082 _335_
*1083 _336_
*1084 _337_
*1085 _338_
*1086 _339_
*1087 _340_
*1088 _341_
*1089 _342_
*1090 _343_
*1091 _344_
*1092 _345_
*1093 _346_
*1094 _347_
*1095 input1
*1096 input10
*1097 input11
*1098 input12
*1099 input13
*1100 input14
*1101 input15
*1102 input16
*1103 input17
*1104 input18
*1105 input19
*1106 input2
*1107 input3
*1108 input4
*1109 input5
*1110 input6
*1111 input7
*1112 input8
*1113 input9
*1114 output20
*1115 output21
*1116 output22
*1117 output23
*1118 output24
*1119 output25
*1120 output26
*1121 output27
*1122 rebuffer1
*1123 rebuffer2
*1124 rebuffer3
*1125 rebuffer4
*1126 rebuffer5
*1127 wire28

*PORTS
A[0] I
A[1] I
A[2] I
A[3] I
A[4] I
A[5] I
A[6] I
A[7] I
B[0] I
B[1] I
B[2] I
B[3] I
B[4] I
B[5] I
B[6] I
B[7] I
opcode[0] I
opcode[1] I
opcode[2] I
out[0] O
out[1] O
out[2] O
out[3] O
out[4] O
out[5] O
out[6] O
out[7] O

*D_NET *1 0.000774339
*CONN
*P A[0] I
*I *1095:A I *D sky130_fd_sc_hd__buf_1
*CAP
1 A[0] 0.000297023
2 *1095:A 0.000297023
3 *1095:A *932:A2 8.50602e-05
4 *1095:A *1102:A 0
5 *1095:A *1106:A 1.01739e-05
6 *1095:A *46:36 8.50602e-05
7 *1095:A *73:36 0
*RES
1 A[0] *1095:A 5.61177 
*END

*D_NET *2 0.000933031
*CONN
*P A[1] I
*I *1106:A I *D sky130_fd_sc_hd__clkbuf_2
*CAP
1 A[1] 0.000370951
2 *1106:A 0.000370951
3 *1106:A *1107:A 4.3606e-06
4 *1106:A *109:22 9.02825e-05
5 *1106:A *110:28 8.6313e-05
6 *1095:A *1106:A 1.01739e-05
*RES
1 A[1] *1106:A 7.9443 
*END

*D_NET *3 0.000889207
*CONN
*P A[2] I
*I *1107:A I *D sky130_fd_sc_hd__buf_2
*CAP
1 A[2] 0.000210986
2 *1107:A 0.000210986
3 *1107:A *1076:A 0.00023343
4 *1107:A *1076:B 0.000195586
5 *1107:A *1108:A 5.33311e-06
6 *1107:A *103:18 7.96104e-06
7 *1107:A *109:22 2.05641e-05
8 *1106:A *1107:A 4.3606e-06
*RES
1 A[2] *1107:A 6.8343 
*END

*D_NET *4 0.000814131
*CONN
*P A[3] I
*I *1108:A I *D sky130_fd_sc_hd__buf_2
*CAP
1 A[3] 0.000324661
2 *1108:A 0.000324661
3 *1108:A *1076:A 0
4 *1108:A *1109:A 5.33311e-06
5 *1108:A *61:16 7.94308e-05
6 *1108:A *103:18 7.47107e-05
7 *1107:A *1108:A 5.33311e-06
*RES
1 A[3] *1108:A 8.1093 
*END

*D_NET *5 0.000735439
*CONN
*P A[4] I
*I *1109:A I *D sky130_fd_sc_hd__clkbuf_4
*CAP
1 A[4] 0.000281197
2 *1109:A 0.000281197
3 *1109:A *1072:A2 0.000114753
4 *1109:A *1110:A 6.30563e-06
5 *1109:A *61:16 2.56866e-05
6 *1109:A *103:18 2.09665e-05
7 *1108:A *1109:A 5.33311e-06
*RES
1 A[4] *1109:A 7.4343 
*END

*D_NET *6 0.000731177
*CONN
*P A[5] I
*I *1110:A I *D sky130_fd_sc_hd__buf_2
*CAP
1 A[5] 0.000326772
2 *1110:A 0.000326772
3 *1110:A *1072:A2 0
4 *1110:A *1111:A 5.33311e-06
5 *1110:A *61:16 6.59947e-05
6 *1110:A *230:18 0
7 *1109:A *1110:A 6.30563e-06
*RES
1 A[5] *1110:A 7.8543 
*END

*D_NET *7 0.000650372
*CONN
*P A[6] I
*I *1111:A I *D sky130_fd_sc_hd__clkbuf_2
*CAP
1 A[6] 0.000273201
2 *1111:A 0.000273201
3 *1111:A *61:8 0
4 *1111:A *61:16 1.22505e-05
5 *1111:A *87:28 4.71944e-05
6 *1111:A *230:18 3.91927e-05
7 *1110:A *1111:A 5.33311e-06
*RES
1 A[6] *1111:A 7.1793 
*END

*D_NET *8 0.000668467
*CONN
*P A[7] I
*I *1112:A I *D sky130_fd_sc_hd__buf_2
*CAP
1 A[7] 0.000257232
2 *1112:A 0.000257232
3 *1112:A *61:16 0
4 *1112:A *87:28 0.000154004
*RES
1 A[7] *1112:A 6.63177 
*END

*D_NET *9 0.000750015
*CONN
*P B[0] I
*I *1113:A I *D sky130_fd_sc_hd__clkbuf_2
*CAP
1 B[0] 0.000311827
2 *1113:A 0.000311827
3 *1113:A *1022:B 0
4 *1113:A *1096:A 0
5 *1113:A *73:36 5.85626e-05
6 *1113:A *87:16 0
7 *1113:A *109:22 6.77993e-05
*RES
1 B[0] *1113:A 7.4343 
*END

*D_NET *10 0.00122134
*CONN
*P B[1] I
*I *1096:A I *D sky130_fd_sc_hd__clkbuf_2
*CAP
1 B[1] 0.000497049
2 *1096:A 0.000497049
3 *1096:A *924:B 4.8854e-05
4 *1096:A *1097:A 1.01739e-05
5 *1096:A *73:36 0.000106226
6 *1096:A *109:22 4.64544e-05
7 *1096:A *110:28 1.55372e-05
8 *1113:A *1096:A 0
*RES
1 B[1] *1096:A 9.5487 
*END

*D_NET *11 0.000674606
*CONN
*P B[2] I
*I *1097:A I *D sky130_fd_sc_hd__buf_2
*CAP
1 B[2] 0.00031272
2 *1097:A 0.00031272
3 *1097:A *1098:A 0
4 *1097:A *109:22 2.10433e-05
5 *1097:A *110:28 1.79483e-05
6 *1096:A *1097:A 1.01739e-05
*RES
1 B[2] *1097:A 6.8343 
*END

*D_NET *12 0.000926726
*CONN
*P B[3] I
*I *1098:A I *D sky130_fd_sc_hd__clkbuf_2
*CAP
1 B[3] 0.000306165
2 *1098:A 0.000306165
3 *1098:A *932:A2 0.000161985
4 *1098:A *1022:B 6.52795e-05
5 *1098:A *1099:A 7.70373e-06
6 *1098:A *103:18 7.94276e-05
7 *1097:A *1098:A 0
*RES
1 B[3] *1098:A 6.69003 
*END

*D_NET *13 0.000953875
*CONN
*P B[4] I
*I *1099:A I *D sky130_fd_sc_hd__clkbuf_4
*CAP
1 B[4] 0.000347252
2 *1099:A 0.000347252
3 *1099:A *1100:A 0
4 *1099:A *61:16 8.247e-05
5 *1099:A *109:22 4.4123e-05
6 *1099:A *110:28 4.01535e-05
7 *1099:A *163:18 8.49205e-05
8 *1098:A *1099:A 7.70373e-06
*RES
1 B[4] *1099:A 7.4343 
*END

*D_NET *14 0.000905322
*CONN
*P B[5] I
*I *1100:A I *D sky130_fd_sc_hd__buf_2
*CAP
1 B[5] 0.000306639
2 *1100:A 0.000306639
3 *1100:A *932:A2 7.61737e-05
4 *1100:A *1101:A 7.70373e-06
5 *1100:A *73:36 0
6 *1100:A *145:50 5.56629e-05
7 *1100:A *163:18 0.000152503
8 *1099:A *1100:A 0
*RES
1 B[5] *1100:A 6.37677 
*END

*D_NET *15 0.000847328
*CONN
*P B[6] I
*I *1101:A I *D sky130_fd_sc_hd__clkbuf_2
*CAP
1 B[6] 0.000397644
2 *1101:A 0.000397644
3 *1101:A *1102:A 5.3396e-06
4 *1101:A *109:22 2.10433e-05
5 *1101:A *110:28 1.79536e-05
6 *1100:A *1101:A 7.70373e-06
*RES
1 B[6] *1101:A 7.1793 
*END

*D_NET *16 0.00106038
*CONN
*P B[7] I
*I *1102:A I *D sky130_fd_sc_hd__clkbuf_2
*CAP
1 B[7] 0.00036976
2 *1102:A 0.00036976
3 *1102:A *46:36 4.66108e-05
4 *1102:A *109:22 0.000136442
5 *1102:A *110:28 0.000132472
6 *1095:A *1102:A 0
7 *1101:A *1102:A 5.3396e-06
*RES
1 B[7] *1102:A 8.4543 
*END

*D_NET *19 0.000825391
*CONN
*P opcode[0] I
*I *1103:A I *D sky130_fd_sc_hd__buf_2
*CAP
1 opcode[0] 0.000412696
2 *1103:A 0.000412696
3 *1103:A *1104:A 0
*RES
1 opcode[0] *1103:A 8.5287 
*END

*D_NET *20 0.000894032
*CONN
*P opcode[1] I
*I *1104:A I *D sky130_fd_sc_hd__clkbuf_4
*CAP
1 opcode[1] 0.000408074
2 *1104:A 0.000408074
3 *1104:A *958:B 3.7957e-05
4 *1104:A *1105:A 1.11399e-05
5 *1104:A *109:22 0
6 *1104:A *209:18 2.87867e-05
7 *1103:A *1104:A 0
*RES
1 opcode[1] *1104:A 7.71003 
*END

*D_NET *21 0.000966108
*CONN
*P opcode[2] I
*I *1105:A I *D sky130_fd_sc_hd__clkbuf_4
*CAP
1 opcode[2] 0.000461189
2 *1105:A 0.000461189
3 *1105:A *958:B 0
4 *1105:A *1022:B 0
5 *1105:A *109:22 3.25887e-05
6 *1105:A *145:50 0
7 *1104:A *1105:A 1.11399e-05
*RES
1 opcode[2] *1105:A 9.9843 
*END

*D_NET *22 0.00170986
*CONN
*P out[0] O
*I *1114:X O *D sky130_fd_sc_hd__buf_2
*CAP
1 out[0] 0.000818141
2 *1114:X 0.000818141
3 out[0] *1114:A 7.35813e-05
*RES
1 *1114:X out[0] 12.2879 
*END

*D_NET *23 0.000624611
*CONN
*P out[1] O
*I *1115:X O *D sky130_fd_sc_hd__buf_2
*CAP
1 out[1] 0.000275205
2 *1115:X 0.000275205
3 out[1] *1115:A 6.06899e-05
4 out[1] *1117:A 1.35106e-05
*RES
1 *1115:X out[1] 5.9833 
*END

*D_NET *24 0.00098142
*CONN
*P out[2] O
*I *1116:X O *D sky130_fd_sc_hd__buf_2
*CAP
1 out[2] 0.000345381
2 *1116:X 0.000345381
3 out[2] *1117:A 0.00018813
4 out[2] *60:30 0.000102529
*RES
1 *1116:X out[2] 7.0033 
*END

*D_NET *25 0.000573752
*CONN
*P out[3] O
*I *1117:X O *D sky130_fd_sc_hd__buf_2
*CAP
1 out[3] 0.000266705
2 *1117:X 0.000266705
3 out[3] *1117:A 1.92979e-05
4 out[3] *188:50 2.10433e-05
*RES
1 *1117:X out[3] 4.9633 
*END

*D_NET *26 0.000592403
*CONN
*P out[4] O
*I *1118:X O *D sky130_fd_sc_hd__buf_2
*CAP
1 out[4] 0.000281534
2 *1118:X 0.000281534
3 out[4] *961:A 1.97486e-05
4 out[4] *1043:A 9.58678e-06
*RES
1 *1118:X out[4] 4.9633 
*END

*D_NET *27 0.00080828
*CONN
*P out[5] O
*I *1119:X O *D sky130_fd_sc_hd__buf_4
*CAP
1 out[5] 0.00031339
2 *1119:X 0.00031339
3 out[5] *1043:A 5.0253e-05
4 out[5] *188:29 0.000131247
*RES
1 *1119:X out[5] 6.29657 
*END

*D_NET *28 0.00118953
*CONN
*P out[6] O
*I *1120:X O *D sky130_fd_sc_hd__buf_2
*CAP
1 out[6] 0.000586011
2 *1120:X 0.000586011
3 out[6] *1045:B1 7.43727e-06
4 out[6] *1058:C 1.00725e-05
*RES
1 *1120:X out[6] 5.37117 
*END

*D_NET *29 0.000827758
*CONN
*P out[7] O
*I *1121:X O *D sky130_fd_sc_hd__buf_2
*CAP
1 out[7] 0.000413879
2 *1121:X 0.000413879
*RES
1 *1121:X out[7] 8.0233 
*END

*D_NET *30 0.0287863
*CONN
*I *992:B I *D sky130_fd_sc_hd__or3_4
*I *991:A1 I *D sky130_fd_sc_hd__o21a_2
*I *989:X O *D sky130_fd_sc_hd__and3_4
*CAP
1 *992:B 0.00597753
2 *991:A1 0.000372366
3 *989:X 0.00283364
4 *30:14 0.00918354
5 *991:A1 *986:A1 1.66925e-05
6 *991:A1 *991:A2 6.09347e-05
7 *991:A1 *138:18 2.90651e-05
8 *992:B *942:A 0.000341799
9 *992:B *949:B 6.63219e-06
10 *992:B *962:A 0.00104079
11 *992:B *981:A 0.000704696
12 *992:B *992:C 0.00174543
13 *992:B *1027:B1 0.000113901
14 *992:B *1037:A2 0.000235916
15 *992:B *1037:A3 0
16 *992:B *1058:C 0
17 *992:B *1081:C1 0.000327355
18 *992:B *1082:A1 9.26907e-06
19 *992:B *1091:B1 0.000199209
20 *992:B *1117:A 0.000428093
21 *992:B *1120:A 0.000427073
22 *992:B *48:39 0.000117708
23 *992:B *65:24 0.000425243
24 *992:B *95:18 0.000128703
25 *992:B *132:20 0.000389406
26 *992:B *140:38 0.000331436
27 *992:B *232:18 0.000620425
28 *30:14 *939:C 0.000119028
29 *30:14 *945:C 1.19206e-05
30 *30:14 *968:A 1.92355e-05
31 *30:14 *980:B1 0.000628797
32 *30:14 *986:A2 0.0012172
33 *30:14 *1000:B 0.000118286
34 *30:14 *1051:A1 1.83114e-05
35 *30:14 *1058:C 9.81471e-05
36 *30:14 *60:54 0.000249725
37 *30:14 *141:24 0.00012905
38 *30:14 *144:28 0.000109729
*RES
1 *989:X *30:14 11.1561 
2 *30:14 *991:A1 5.96443 
3 *30:14 *992:B 17.888 
*END

*D_NET *31 0.0227015
*CONN
*I *991:A2 I *D sky130_fd_sc_hd__o21a_2
*I *992:C I *D sky130_fd_sc_hd__or3_4
*I *990:Y O *D sky130_fd_sc_hd__a21oi_2
*CAP
1 *991:A2 0.00417333
2 *992:C 0.00096066
3 *990:Y 0.000133994
4 *31:10 0.00526798
5 *991:A2 *980:B1 0
6 *991:A2 *986:A2 0.000175008
7 *991:A2 *1045:A1 0.000101212
8 *991:A2 *1048:A2 4.93168e-05
9 *991:A2 *1052:B1 0.00364199
10 *991:A2 *1058:C 0.000278431
11 *991:A2 *1093:B 0.000554871
12 *991:A2 *93:28 0.000129951
13 *991:A2 *96:26 0.00248142
14 *991:A2 *138:16 0.000147311
15 *991:A2 *140:38 2.11789e-05
16 *991:A2 *212:20 0
17 *992:C *949:B 9.5799e-06
18 *992:C *992:A 6.15576e-06
19 *992:C *1012:A 9.67081e-06
20 *992:C *1026:A 3.85103e-05
21 *992:C *1027:B1 0.0015526
22 *992:C *1028:A 2.32615e-05
23 *992:C *1030:B 3.72899e-05
24 *992:C *109:22 2.4451e-05
25 *992:C *140:38 0.000318192
26 *992:C *147:12 0.000264442
27 *992:C *210:102 0.000238497
28 *31:10 *1012:A 0.000100115
29 *31:10 *1012:C 7.23602e-05
30 *31:10 *1026:A 1.252e-05
31 *31:10 *130:125 7.0887e-05
32 *991:A1 *991:A2 6.09347e-05
33 *992:B *992:C 0.00174543
*RES
1 *990:Y *31:10 5.9925 
2 *31:10 *992:C 11.7358 
3 *31:10 *991:A2 17.653 
*END
