*SPEF "ieee 1481-1999"
*DESIGN "spm"
*DATE "12:38:51 Saturday April 26, 2025"
*VENDOR "The OpenROAD Project"
*PROGRAM "OpenROAD"
*VERSION "b16bda7e82721d10566ff7e2b68f1ff0be9f9e38"
*DESIGN_FLOW "NAME_SCOPE LOCAL" "PIN_CAP NONE"
*DIVIDER /
*DELIMITER :
*BUS_DELIMITER []
*T_UNIT 1 NS
*C_UNIT 1 PF
*R_UNIT 1 OHM
*L_UNIT 1 HENRY

*NAME_MAP
*3 a[0]
*4 a[10]
*5 a[11]
*6 a[12]
*7 a[13]
*8 a[14]
*9 a[15]
*10 a[16]
*11 a[17]
*12 a[18]
*13 a[19]
*14 a[1]
*15 a[20]
*16 a[21]
*17 a[22]
*18 a[23]
*19 a[24]
*20 a[25]
*21 a[26]
*22 a[27]
*23 a[28]
*24 a[29]
*25 a[2]
*26 a[30]
*27 a[31]
*28 a[3]
*29 a[4]
*30 a[5]
*31 a[6]
*32 a[7]
*33 a[8]
*34 a[9]
*35 clk
*36 rst
*37 x
*38 y
*39 _000_
*40 _001_
*41 _002_
*42 _003_
*43 _004_
*44 _005_
*45 _006_
*46 _007_
*47 _008_
*48 _009_
*49 _010_
*50 _011_
*51 _012_
*52 _013_
*53 _014_
*54 _015_
*55 _016_
*56 _017_
*57 _018_
*58 _019_
*59 _020_
*60 _021_
*61 _022_
*62 _023_
*63 _024_
*64 _025_
*65 _026_
*66 _027_
*67 _028_
*68 _029_
*69 _030_
*70 _031_
*71 _032_
*72 _033_
*73 _034_
*74 _035_
*75 _036_
*76 _037_
*77 _038_
*78 _039_
*79 _040_
*80 _041_
*81 _042_
*82 _043_
*83 _044_
*84 _045_
*85 _046_
*86 _047_
*87 _048_
*88 _049_
*89 _050_
*90 _051_
*91 _052_
*92 _053_
*93 _054_
*94 _055_
*95 _056_
*96 _057_
*97 _058_
*98 _059_
*99 _060_
*100 _061_
*101 _062_
*102 _063_
*103 _064_
*104 _065_
*105 _066_
*106 _067_
*107 _068_
*108 _069_
*109 _070_
*110 _071_
*111 _072_
*112 _073_
*113 _074_
*114 _075_
*115 _076_
*116 _077_
*117 _078_
*118 _079_
*119 _080_
*120 _081_
*121 _082_
*122 _083_
*123 _084_
*124 _085_
*125 _086_
*126 _087_
*127 _088_
*128 _089_
*129 _090_
*130 _091_
*131 _092_
*132 _093_
*133 _094_
*134 _095_
*135 _096_
*136 _097_
*137 _098_
*138 _099_
*139 _100_
*140 _101_
*141 clknet_0_clk
*142 clknet_3_0__leaf_clk
*143 clknet_3_1__leaf_clk
*144 clknet_3_2__leaf_clk
*145 clknet_3_3__leaf_clk
*146 clknet_3_4__leaf_clk
*147 clknet_3_5__leaf_clk
*148 clknet_3_6__leaf_clk
*149 clknet_3_7__leaf_clk
*150 dsa\[0\]\.last_carry
*151 dsa\[0\]\.last_carry_next
*152 dsa\[0\]\.y_out
*153 dsa\[0\]\.y_out_next
*154 dsa\[10\]\.last_carry
*155 dsa\[10\]\.last_carry_next
*156 dsa\[10\]\.y_in
*157 dsa\[10\]\.y_out
*158 dsa\[10\]\.y_out_next
*159 dsa\[11\]\.last_carry
*160 dsa\[11\]\.last_carry_next
*161 dsa\[11\]\.y_out
*162 dsa\[11\]\.y_out_next
*163 dsa\[12\]\.last_carry
*164 dsa\[12\]\.last_carry_next
*165 dsa\[12\]\.y_out
*166 dsa\[12\]\.y_out_next
*167 dsa\[13\]\.last_carry
*168 dsa\[13\]\.last_carry_next
*169 dsa\[13\]\.y_out
*170 dsa\[13\]\.y_out_next
*171 dsa\[14\]\.last_carry
*172 dsa\[14\]\.last_carry_next
*173 dsa\[14\]\.y_out
*174 dsa\[14\]\.y_out_next
*175 dsa\[15\]\.last_carry
*176 dsa\[15\]\.last_carry_next
*177 dsa\[15\]\.y_out
*178 dsa\[15\]\.y_out_next
*179 dsa\[16\]\.last_carry
*180 dsa\[16\]\.last_carry_next
*181 dsa\[16\]\.y_out
*182 dsa\[16\]\.y_out_next
*183 dsa\[17\]\.last_carry
*184 dsa\[17\]\.last_carry_next
*185 dsa\[17\]\.y_out
*186 dsa\[17\]\.y_out_next
*187 dsa\[18\]\.last_carry
*188 dsa\[18\]\.last_carry_next
*189 dsa\[18\]\.y_out
*190 dsa\[18\]\.y_out_next
*191 dsa\[19\]\.last_carry
*192 dsa\[19\]\.last_carry_next
*193 dsa\[19\]\.y_out
*194 dsa\[19\]\.y_out_next
*195 dsa\[1\]\.last_carry
*196 dsa\[1\]\.last_carry_next
*197 dsa\[1\]\.y_out
*198 dsa\[1\]\.y_out_next
*199 dsa\[20\]\.last_carry
*200 dsa\[20\]\.last_carry_next
*201 dsa\[20\]\.y_out
*202 dsa\[20\]\.y_out_next
*203 dsa\[21\]\.last_carry
*204 dsa\[21\]\.last_carry_next
*205 dsa\[21\]\.y_out
*206 dsa\[21\]\.y_out_next
*207 dsa\[22\]\.last_carry
*208 dsa\[22\]\.last_carry_next
*209 dsa\[22\]\.y_out
*210 dsa\[22\]\.y_out_next
*211 dsa\[23\]\.last_carry
*212 dsa\[23\]\.last_carry_next
*213 dsa\[23\]\.y_out
*214 dsa\[23\]\.y_out_next
*215 dsa\[24\]\.last_carry
*216 dsa\[24\]\.last_carry_next
*217 dsa\[24\]\.y_out
*218 dsa\[24\]\.y_out_next
*219 dsa\[25\]\.last_carry
*220 dsa\[25\]\.last_carry_next
*221 dsa\[25\]\.y_out
*222 dsa\[25\]\.y_out_next
*223 dsa\[26\]\.last_carry
*224 dsa\[26\]\.last_carry_next
*225 dsa\[26\]\.y_out
*226 dsa\[26\]\.y_out_next
*227 dsa\[27\]\.last_carry
*228 dsa\[27\]\.last_carry_next
*229 dsa\[27\]\.y_out
*230 dsa\[27\]\.y_out_next
*231 dsa\[28\]\.last_carry
*232 dsa\[28\]\.last_carry_next
*233 dsa\[28\]\.y_out
*234 dsa\[28\]\.y_out_next
*235 dsa\[29\]\.last_carry
*236 dsa\[29\]\.last_carry_next
*237 dsa\[29\]\.y_out
*238 dsa\[29\]\.y_out_next
*239 dsa\[2\]\.last_carry
*240 dsa\[2\]\.last_carry_next
*241 dsa\[2\]\.y_out
*242 dsa\[2\]\.y_out_next
*243 dsa\[30\]\.last_carry
*244 dsa\[30\]\.last_carry_next
*245 dsa\[30\]\.y_out
*246 dsa\[30\]\.y_out_next
*247 dsa\[31\]\.last_carry
*248 dsa\[31\]\.last_carry_next
*249 dsa\[31\]\.y_out_next
*250 dsa\[3\]\.last_carry
*251 dsa\[3\]\.last_carry_next
*252 dsa\[3\]\.y_out
*253 dsa\[3\]\.y_out_next
*254 dsa\[4\]\.last_carry
*255 dsa\[4\]\.last_carry_next
*256 dsa\[4\]\.y_out
*257 dsa\[4\]\.y_out_next
*258 dsa\[5\]\.last_carry
*259 dsa\[5\]\.last_carry_next
*260 dsa\[5\]\.y_out
*261 dsa\[5\]\.y_out_next
*262 dsa\[6\]\.last_carry
*263 dsa\[6\]\.last_carry_next
*264 dsa\[6\]\.y_out
*265 dsa\[6\]\.y_out_next
*266 dsa\[7\]\.last_carry
*267 dsa\[7\]\.last_carry_next
*268 dsa\[7\]\.y_out
*269 dsa\[7\]\.y_out_next
*270 dsa\[8\]\.last_carry
*271 dsa\[8\]\.last_carry_next
*272 dsa\[8\]\.y_out
*273 dsa\[8\]\.y_out_next
*274 dsa\[9\]\.last_carry
*275 dsa\[9\]\.last_carry_next
*276 dsa\[9\]\.y_out_next
*277 net1
*278 net10
*279 net11
*280 net12
*281 net13
*282 net14
*283 net15
*284 net16
*285 net17
*286 net18
*287 net19
*288 net2
*289 net20
*290 net21
*291 net22
*292 net23
*293 net24
*294 net25
*295 net26
*296 net27
*297 net28
*298 net29
*299 net3
*300 net30
*301 net31
*302 net32
*303 net33
*304 net34
*305 net4
*306 net5
*307 net6
*308 net7
*309 net8
*310 net9
*311 FILLER_0_0_109
*312 FILLER_0_0_113
*313 FILLER_0_0_125
*314 FILLER_0_0_137
*315 FILLER_0_0_141
*316 FILLER_0_0_145
*317 FILLER_0_0_15
*318 FILLER_0_0_162
*319 FILLER_0_0_169
*320 FILLER_0_0_181
*321 FILLER_0_0_27
*322 FILLER_0_0_29
*323 FILLER_0_0_3
*324 FILLER_0_0_41
*325 FILLER_0_0_53
*326 FILLER_0_0_57
*327 FILLER_0_0_69
*328 FILLER_0_0_81
*329 FILLER_0_0_85
*330 FILLER_0_0_97
*331 FILLER_0_10_109
*332 FILLER_0_10_117
*333 FILLER_0_10_148
*334 FILLER_0_10_156
*335 FILLER_0_10_17
*336 FILLER_0_10_179
*337 FILLER_0_10_25
*338 FILLER_0_10_29
*339 FILLER_0_10_3
*340 FILLER_0_10_39
*341 FILLER_0_10_43
*342 FILLER_0_10_85
*343 FILLER_0_10_97
*344 FILLER_0_11_106
*345 FILLER_0_11_113
*346 FILLER_0_11_121
*347 FILLER_0_11_130
*348 FILLER_0_11_142
*349 FILLER_0_11_167
*350 FILLER_0_11_172
*351 FILLER_0_11_180
*352 FILLER_0_11_21
*353 FILLER_0_11_3
*354 FILLER_0_11_45
*355 FILLER_0_11_53
*356 FILLER_0_11_57
*357 FILLER_0_11_69
*358 FILLER_0_11_81
*359 FILLER_0_11_93
*360 FILLER_0_12_111
*361 FILLER_0_12_119
*362 FILLER_0_12_161
*363 FILLER_0_12_177
*364 FILLER_0_12_23
*365 FILLER_0_12_27
*366 FILLER_0_12_29
*367 FILLER_0_12_78
*368 FILLER_0_13_100
*369 FILLER_0_13_11
*370 FILLER_0_13_133
*371 FILLER_0_13_145
*372 FILLER_0_13_157
*373 FILLER_0_13_165
*374 FILLER_0_13_17
*375 FILLER_0_13_181
*376 FILLER_0_13_25
*377 FILLER_0_13_3
*378 FILLER_0_13_48
*379 FILLER_0_13_64
*380 FILLER_0_13_86
*381 FILLER_0_13_94
*382 FILLER_0_14_106
*383 FILLER_0_14_118
*384 FILLER_0_14_128
*385 FILLER_0_14_15
*386 FILLER_0_14_161
*387 FILLER_0_14_27
*388 FILLER_0_14_29
*389 FILLER_0_14_3
*390 FILLER_0_14_37
*391 FILLER_0_14_44
*392 FILLER_0_14_52
*393 FILLER_0_14_67
*394 FILLER_0_14_79
*395 FILLER_0_14_83
*396 FILLER_0_14_85
*397 FILLER_0_14_97
*398 FILLER_0_15_104
*399 FILLER_0_15_113
*400 FILLER_0_15_125
*401 FILLER_0_15_137
*402 FILLER_0_15_143
*403 FILLER_0_15_162
*404 FILLER_0_15_175
*405 FILLER_0_15_23
*406 FILLER_0_15_49
*407 FILLER_0_15_55
*408 FILLER_0_15_63
*409 FILLER_0_15_75
*410 FILLER_0_15_87
*411 FILLER_0_15_95
*412 FILLER_0_16_113
*413 FILLER_0_16_136
*414 FILLER_0_16_141
*415 FILLER_0_16_150
*416 FILLER_0_16_162
*417 FILLER_0_16_172
*418 FILLER_0_16_180
*419 FILLER_0_16_27
*420 FILLER_0_16_29
*421 FILLER_0_16_3
*422 FILLER_0_16_41
*423 FILLER_0_16_62
*424 FILLER_0_16_81
*425 FILLER_0_16_85
*426 FILLER_0_16_89
*427 FILLER_0_16_9
*428 FILLER_0_17_11
*429 FILLER_0_17_113
*430 FILLER_0_17_136
*431 FILLER_0_17_149
*432 FILLER_0_17_161
*433 FILLER_0_17_167
*434 FILLER_0_17_169
*435 FILLER_0_17_18
*436 FILLER_0_17_181
*437 FILLER_0_17_29
*438 FILLER_0_17_3
*439 FILLER_0_17_41
*440 FILLER_0_17_53
*441 FILLER_0_17_89
*442 FILLER_0_18_109
*443 FILLER_0_18_121
*444 FILLER_0_18_131
*445 FILLER_0_18_139
*446 FILLER_0_18_141
*447 FILLER_0_18_15
*448 FILLER_0_18_153
*449 FILLER_0_18_179
*450 FILLER_0_18_21
*451 FILLER_0_18_29
*452 FILLER_0_18_3
*453 FILLER_0_18_41
*454 FILLER_0_18_49
*455 FILLER_0_18_61
*456 FILLER_0_18_73
*457 FILLER_0_18_83
*458 FILLER_0_18_85
*459 FILLER_0_18_97
*460 FILLER_0_19_105
*461 FILLER_0_19_111
*462 FILLER_0_19_113
*463 FILLER_0_19_117
*464 FILLER_0_19_121
*465 FILLER_0_19_167
*466 FILLER_0_19_54
*467 FILLER_0_19_64
*468 FILLER_0_19_76
*469 FILLER_0_19_84
*470 FILLER_0_1_105
*471 FILLER_0_1_111
*472 FILLER_0_1_113
*473 FILLER_0_1_125
*474 FILLER_0_1_137
*475 FILLER_0_1_149
*476 FILLER_0_1_15
*477 FILLER_0_1_161
*478 FILLER_0_1_167
*479 FILLER_0_1_169
*480 FILLER_0_1_181
*481 FILLER_0_1_27
*482 FILLER_0_1_3
*483 FILLER_0_1_39
*484 FILLER_0_1_51
*485 FILLER_0_1_55
*486 FILLER_0_1_57
*487 FILLER_0_1_69
*488 FILLER_0_1_81
*489 FILLER_0_1_93
*490 FILLER_0_20_133
*491 FILLER_0_20_139
*492 FILLER_0_20_141
*493 FILLER_0_20_153
*494 FILLER_0_20_161
*495 FILLER_0_20_17
*496 FILLER_0_20_25
*497 FILLER_0_20_29
*498 FILLER_0_20_3
*499 FILLER_0_20_37
*500 FILLER_0_20_44
*501 FILLER_0_20_56
*502 FILLER_0_20_9
*503 FILLER_0_20_92
*504 FILLER_0_21_101
*505 FILLER_0_21_107
*506 FILLER_0_21_113
*507 FILLER_0_21_121
*508 FILLER_0_21_133
*509 FILLER_0_21_145
*510 FILLER_0_21_149
*511 FILLER_0_21_156
*512 FILLER_0_21_169
*513 FILLER_0_21_177
*514 FILLER_0_21_18
*515 FILLER_0_21_23
*516 FILLER_0_21_3
*517 FILLER_0_21_35
*518 FILLER_0_21_51
*519 FILLER_0_21_55
*520 FILLER_0_21_77
*521 FILLER_0_21_89
*522 FILLER_0_22_105
*523 FILLER_0_22_113
*524 FILLER_0_22_136
*525 FILLER_0_22_18
*526 FILLER_0_22_181
*527 FILLER_0_22_26
*528 FILLER_0_22_29
*529 FILLER_0_22_3
*530 FILLER_0_22_58
*531 FILLER_0_22_9
*532 FILLER_0_22_93
*533 FILLER_0_23_107
*534 FILLER_0_23_111
*535 FILLER_0_23_113
*536 FILLER_0_23_140
*537 FILLER_0_23_162
*538 FILLER_0_23_169
*539 FILLER_0_23_181
*540 FILLER_0_23_23
*541 FILLER_0_23_29
*542 FILLER_0_23_64
*543 FILLER_0_23_76
*544 FILLER_0_24_11
*545 FILLER_0_24_137
*546 FILLER_0_24_141
*547 FILLER_0_24_150
*548 FILLER_0_24_162
*549 FILLER_0_24_177
*550 FILLER_0_24_23
*551 FILLER_0_24_27
*552 FILLER_0_24_29
*553 FILLER_0_24_3
*554 FILLER_0_24_41
*555 FILLER_0_24_48
*556 FILLER_0_24_52
*557 FILLER_0_24_58
*558 FILLER_0_24_79
*559 FILLER_0_24_83
*560 FILLER_0_24_85
*561 FILLER_0_24_90
*562 FILLER_0_24_98
*563 FILLER_0_25_105
*564 FILLER_0_25_111
*565 FILLER_0_25_139
*566 FILLER_0_25_149
*567 FILLER_0_25_15
*568 FILLER_0_25_161
*569 FILLER_0_25_167
*570 FILLER_0_25_169
*571 FILLER_0_25_181
*572 FILLER_0_25_3
*573 FILLER_0_25_38
*574 FILLER_0_25_50
*575 FILLER_0_25_57
*576 FILLER_0_25_69
*577 FILLER_0_25_81
*578 FILLER_0_25_93
*579 FILLER_0_26_100
*580 FILLER_0_26_112
*581 FILLER_0_26_128
*582 FILLER_0_26_141
*583 FILLER_0_26_23
*584 FILLER_0_26_27
*585 FILLER_0_26_29
*586 FILLER_0_26_42
*587 FILLER_0_26_66
*588 FILLER_0_26_75
*589 FILLER_0_26_83
*590 FILLER_0_26_85
*591 FILLER_0_27_111
*592 FILLER_0_27_113
*593 FILLER_0_27_125
*594 FILLER_0_27_137
*595 FILLER_0_27_15
*596 FILLER_0_27_157
*597 FILLER_0_27_165
*598 FILLER_0_27_169
*599 FILLER_0_27_181
*600 FILLER_0_27_23
*601 FILLER_0_27_3
*602 FILLER_0_27_35
*603 FILLER_0_27_47
*604 FILLER_0_27_55
*605 FILLER_0_27_57
*606 FILLER_0_27_65
*607 FILLER_0_27_74
*608 FILLER_0_27_78
*609 FILLER_0_27_99
*610 FILLER_0_28_102
*611 FILLER_0_28_108
*612 FILLER_0_28_11
*613 FILLER_0_28_136
*614 FILLER_0_28_161
*615 FILLER_0_28_25
*616 FILLER_0_28_29
*617 FILLER_0_28_3
*618 FILLER_0_28_37
*619 FILLER_0_28_50
*620 FILLER_0_28_62
*621 FILLER_0_28_77
*622 FILLER_0_28_83
*623 FILLER_0_28_85
*624 FILLER_0_29_109
*625 FILLER_0_29_113
*626 FILLER_0_29_117
*627 FILLER_0_29_139
*628 FILLER_0_29_164
*629 FILLER_0_29_176
*630 FILLER_0_29_29
*631 FILLER_0_29_52
*632 FILLER_0_29_77
*633 FILLER_0_2_109
*634 FILLER_0_2_121
*635 FILLER_0_2_133
*636 FILLER_0_2_139
*637 FILLER_0_2_141
*638 FILLER_0_2_15
*639 FILLER_0_2_153
*640 FILLER_0_2_165
*641 FILLER_0_2_177
*642 FILLER_0_2_27
*643 FILLER_0_2_29
*644 FILLER_0_2_3
*645 FILLER_0_2_41
*646 FILLER_0_2_53
*647 FILLER_0_2_65
*648 FILLER_0_2_77
*649 FILLER_0_2_83
*650 FILLER_0_2_85
*651 FILLER_0_2_97
*652 FILLER_0_30_10
*653 FILLER_0_30_100
*654 FILLER_0_30_106
*655 FILLER_0_30_113
*656 FILLER_0_30_118
*657 FILLER_0_30_124
*658 FILLER_0_30_130
*659 FILLER_0_30_136
*660 FILLER_0_30_144
*661 FILLER_0_30_148
*662 FILLER_0_30_154
*663 FILLER_0_30_160
*664 FILLER_0_30_166
*665 FILLER_0_30_172
*666 FILLER_0_30_178
*667 FILLER_0_30_23
*668 FILLER_0_30_29
*669 FILLER_0_30_34
*670 FILLER_0_30_40
*671 FILLER_0_30_46
*672 FILLER_0_30_52
*673 FILLER_0_30_6
*674 FILLER_0_30_60
*675 FILLER_0_30_64
*676 FILLER_0_30_70
*677 FILLER_0_30_76
*678 FILLER_0_30_82
*679 FILLER_0_30_88
*680 FILLER_0_30_94
*681 FILLER_0_3_105
*682 FILLER_0_3_111
*683 FILLER_0_3_113
*684 FILLER_0_3_125
*685 FILLER_0_3_137
*686 FILLER_0_3_149
*687 FILLER_0_3_15
*688 FILLER_0_3_161
*689 FILLER_0_3_167
*690 FILLER_0_3_169
*691 FILLER_0_3_181
*692 FILLER_0_3_27
*693 FILLER_0_3_3
*694 FILLER_0_3_39
*695 FILLER_0_3_51
*696 FILLER_0_3_55
*697 FILLER_0_3_57
*698 FILLER_0_3_69
*699 FILLER_0_3_81
*700 FILLER_0_3_93
*701 FILLER_0_4_101
*702 FILLER_0_4_113
*703 FILLER_0_4_125
*704 FILLER_0_4_137
*705 FILLER_0_4_141
*706 FILLER_0_4_149
*707 FILLER_0_4_15
*708 FILLER_0_4_173
*709 FILLER_0_4_181
*710 FILLER_0_4_27
*711 FILLER_0_4_29
*712 FILLER_0_4_3
*713 FILLER_0_4_41
*714 FILLER_0_4_53
*715 FILLER_0_4_74
*716 FILLER_0_4_82
*717 FILLER_0_4_85
*718 FILLER_0_4_97
*719 FILLER_0_5_110
*720 FILLER_0_5_120
*721 FILLER_0_5_169
*722 FILLER_0_5_178
*723 FILLER_0_5_182
*724 FILLER_0_5_34
*725 FILLER_0_5_65
*726 FILLER_0_5_69
*727 FILLER_0_6_114
*728 FILLER_0_6_118
*729 FILLER_0_6_126
*730 FILLER_0_6_138
*731 FILLER_0_6_141
*732 FILLER_0_6_153
*733 FILLER_0_6_171
*734 FILLER_0_6_26
*735 FILLER_0_6_35
*736 FILLER_0_6_50
*737 FILLER_0_6_58
*738 FILLER_0_6_64
*739 FILLER_0_6_76
*740 FILLER_0_6_92
*741 FILLER_0_7_105
*742 FILLER_0_7_111
*743 FILLER_0_7_113
*744 FILLER_0_7_117
*745 FILLER_0_7_126
*746 FILLER_0_7_134
*747 FILLER_0_7_15
*748 FILLER_0_7_157
*749 FILLER_0_7_165
*750 FILLER_0_7_169
*751 FILLER_0_7_181
*752 FILLER_0_7_29
*753 FILLER_0_7_3
*754 FILLER_0_7_41
*755 FILLER_0_7_53
*756 FILLER_0_7_57
*757 FILLER_0_7_69
*758 FILLER_0_7_81
*759 FILLER_0_7_93
*760 FILLER_0_8_11
*761 FILLER_0_8_139
*762 FILLER_0_8_141
*763 FILLER_0_8_151
*764 FILLER_0_8_23
*765 FILLER_0_8_27
*766 FILLER_0_8_29
*767 FILLER_0_8_3
*768 FILLER_0_8_41
*769 FILLER_0_8_65
*770 FILLER_0_8_93
*771 FILLER_0_9_103
*772 FILLER_0_9_111
*773 FILLER_0_9_113
*774 FILLER_0_9_121
*775 FILLER_0_9_154
*776 FILLER_0_9_166
*777 FILLER_0_9_176
*778 FILLER_0_9_182
*779 FILLER_0_9_3
*780 FILLER_0_9_49
*781 FILLER_0_9_55
*782 FILLER_0_9_57
*783 FILLER_0_9_69
*784 PHY_EDGE_ROW_0_Left_31
*785 PHY_EDGE_ROW_0_Right_0
*786 PHY_EDGE_ROW_10_Left_41
*787 PHY_EDGE_ROW_10_Right_10
*788 PHY_EDGE_ROW_11_Left_42
*789 PHY_EDGE_ROW_11_Right_11
*790 PHY_EDGE_ROW_12_Left_43
*791 PHY_EDGE_ROW_12_Right_12
*792 PHY_EDGE_ROW_13_Left_44
*793 PHY_EDGE_ROW_13_Right_13
*794 PHY_EDGE_ROW_14_Left_45
*795 PHY_EDGE_ROW_14_Right_14
*796 PHY_EDGE_ROW_15_Left_46
*797 PHY_EDGE_ROW_15_Right_15
*798 PHY_EDGE_ROW_16_Left_47
*799 PHY_EDGE_ROW_16_Right_16
*800 PHY_EDGE_ROW_17_Left_48
*801 PHY_EDGE_ROW_17_Right_17
*802 PHY_EDGE_ROW_18_Left_49
*803 PHY_EDGE_ROW_18_Right_18
*804 PHY_EDGE_ROW_19_Left_50
*805 PHY_EDGE_ROW_19_Right_19
*806 PHY_EDGE_ROW_1_Left_32
*807 PHY_EDGE_ROW_1_Right_1
*808 PHY_EDGE_ROW_20_Left_51
*809 PHY_EDGE_ROW_20_Right_20
*810 PHY_EDGE_ROW_21_Left_52
*811 PHY_EDGE_ROW_21_Right_21
*812 PHY_EDGE_ROW_22_Left_53
*813 PHY_EDGE_ROW_22_Right_22
*814 PHY_EDGE_ROW_23_Left_54
*815 PHY_EDGE_ROW_23_Right_23
*816 PHY_EDGE_ROW_24_Left_55
*817 PHY_EDGE_ROW_24_Right_24
*818 PHY_EDGE_ROW_25_Left_56
*819 PHY_EDGE_ROW_25_Right_25
*820 PHY_EDGE_ROW_26_Left_57
*821 PHY_EDGE_ROW_26_Right_26
*822 PHY_EDGE_ROW_27_Left_58
*823 PHY_EDGE_ROW_27_Right_27
*824 PHY_EDGE_ROW_28_Left_59
*825 PHY_EDGE_ROW_28_Right_28
*826 PHY_EDGE_ROW_29_Left_60
*827 PHY_EDGE_ROW_29_Right_29
*828 PHY_EDGE_ROW_2_Left_33
*829 PHY_EDGE_ROW_2_Right_2
*830 PHY_EDGE_ROW_30_Left_61
*831 PHY_EDGE_ROW_30_Right_30
*832 PHY_EDGE_ROW_3_Left_34
*833 PHY_EDGE_ROW_3_Right_3
*834 PHY_EDGE_ROW_4_Left_35
*835 PHY_EDGE_ROW_4_Right_4
*836 PHY_EDGE_ROW_5_Left_36
*837 PHY_EDGE_ROW_5_Right_5
*838 PHY_EDGE_ROW_6_Left_37
*839 PHY_EDGE_ROW_6_Right_6
*840 PHY_EDGE_ROW_7_Left_38
*841 PHY_EDGE_ROW_7_Right_7
*842 PHY_EDGE_ROW_8_Left_39
*843 PHY_EDGE_ROW_8_Right_8
*844 PHY_EDGE_ROW_9_Left_40
*845 PHY_EDGE_ROW_9_Right_9
*846 TAP_TAPCELL_ROW_0_62
*847 TAP_TAPCELL_ROW_0_63
*848 TAP_TAPCELL_ROW_0_64
*849 TAP_TAPCELL_ROW_0_65
*850 TAP_TAPCELL_ROW_0_66
*851 TAP_TAPCELL_ROW_0_67
*852 TAP_TAPCELL_ROW_10_95
*853 TAP_TAPCELL_ROW_10_96
*854 TAP_TAPCELL_ROW_10_97
*855 TAP_TAPCELL_ROW_11_100
*856 TAP_TAPCELL_ROW_11_98
*857 TAP_TAPCELL_ROW_11_99
*858 TAP_TAPCELL_ROW_12_101
*859 TAP_TAPCELL_ROW_12_102
*860 TAP_TAPCELL_ROW_12_103
*861 TAP_TAPCELL_ROW_13_104
*862 TAP_TAPCELL_ROW_13_105
*863 TAP_TAPCELL_ROW_13_106
*864 TAP_TAPCELL_ROW_14_107
*865 TAP_TAPCELL_ROW_14_108
*866 TAP_TAPCELL_ROW_14_109
*867 TAP_TAPCELL_ROW_15_110
*868 TAP_TAPCELL_ROW_15_111
*869 TAP_TAPCELL_ROW_15_112
*870 TAP_TAPCELL_ROW_16_113
*871 TAP_TAPCELL_ROW_16_114
*872 TAP_TAPCELL_ROW_16_115
*873 TAP_TAPCELL_ROW_17_116
*874 TAP_TAPCELL_ROW_17_117
*875 TAP_TAPCELL_ROW_17_118
*876 TAP_TAPCELL_ROW_18_119
*877 TAP_TAPCELL_ROW_18_120
*878 TAP_TAPCELL_ROW_18_121
*879 TAP_TAPCELL_ROW_19_122
*880 TAP_TAPCELL_ROW_19_123
*881 TAP_TAPCELL_ROW_19_124
*882 TAP_TAPCELL_ROW_1_68
*883 TAP_TAPCELL_ROW_1_69
*884 TAP_TAPCELL_ROW_1_70
*885 TAP_TAPCELL_ROW_20_125
*886 TAP_TAPCELL_ROW_20_126
*887 TAP_TAPCELL_ROW_20_127
*888 TAP_TAPCELL_ROW_21_128
*889 TAP_TAPCELL_ROW_21_129
*890 TAP_TAPCELL_ROW_21_130
*891 TAP_TAPCELL_ROW_22_131
*892 TAP_TAPCELL_ROW_22_132
*893 TAP_TAPCELL_ROW_22_133
*894 TAP_TAPCELL_ROW_23_134
*895 TAP_TAPCELL_ROW_23_135
*896 TAP_TAPCELL_ROW_23_136
*897 TAP_TAPCELL_ROW_24_137
*898 TAP_TAPCELL_ROW_24_138
*899 TAP_TAPCELL_ROW_24_139
*900 TAP_TAPCELL_ROW_25_140
*901 TAP_TAPCELL_ROW_25_141
*902 TAP_TAPCELL_ROW_25_142
*903 TAP_TAPCELL_ROW_26_143
*904 TAP_TAPCELL_ROW_26_144
*905 TAP_TAPCELL_ROW_26_145
*906 TAP_TAPCELL_ROW_27_146
*907 TAP_TAPCELL_ROW_27_147
*908 TAP_TAPCELL_ROW_27_148
*909 TAP_TAPCELL_ROW_28_149
*910 TAP_TAPCELL_ROW_28_150
*911 TAP_TAPCELL_ROW_28_151
*912 TAP_TAPCELL_ROW_29_152
*913 TAP_TAPCELL_ROW_29_153
*914 TAP_TAPCELL_ROW_29_154
*915 TAP_TAPCELL_ROW_2_71
*916 TAP_TAPCELL_ROW_2_72
*917 TAP_TAPCELL_ROW_2_73
*918 TAP_TAPCELL_ROW_30_155
*919 TAP_TAPCELL_ROW_30_156
*920 TAP_TAPCELL_ROW_30_157
*921 TAP_TAPCELL_ROW_30_158
*922 TAP_TAPCELL_ROW_30_159
*923 TAP_TAPCELL_ROW_30_160
*924 TAP_TAPCELL_ROW_3_74
*925 TAP_TAPCELL_ROW_3_75
*926 TAP_TAPCELL_ROW_3_76
*927 TAP_TAPCELL_ROW_4_77
*928 TAP_TAPCELL_ROW_4_78
*929 TAP_TAPCELL_ROW_4_79
*930 TAP_TAPCELL_ROW_5_80
*931 TAP_TAPCELL_ROW_5_81
*932 TAP_TAPCELL_ROW_5_82
*933 TAP_TAPCELL_ROW_6_83
*934 TAP_TAPCELL_ROW_6_84
*935 TAP_TAPCELL_ROW_6_85
*936 TAP_TAPCELL_ROW_7_86
*937 TAP_TAPCELL_ROW_7_87
*938 TAP_TAPCELL_ROW_7_88
*939 TAP_TAPCELL_ROW_8_89
*940 TAP_TAPCELL_ROW_8_90
*941 TAP_TAPCELL_ROW_8_91
*942 TAP_TAPCELL_ROW_9_92
*943 TAP_TAPCELL_ROW_9_93
*944 TAP_TAPCELL_ROW_9_94
*945 _102_
*946 _103_
*947 _104_
*948 _105_
*949 _106_
*950 _107_
*951 _108_
*952 _109_
*953 _110_
*954 _111_
*955 _112_
*956 _113_
*957 _114_
*958 _115_
*959 _116_
*960 _117_
*961 _118_
*962 _119_
*963 _120_
*964 _121_
*965 _122_
*966 _123_
*967 _124_
*968 _125_
*969 _126_
*970 _127_
*971 _128_
*972 _129_
*973 _130_
*974 _131_
*975 _132_
*976 _133_
*977 _134_
*978 _135_
*979 _136_
*980 _137_
*981 _138_
*982 _139_
*983 _140_
*984 _141_
*985 _142_
*986 _143_
*987 _144_
*988 _145_
*989 _146_
*990 _147_
*991 _148_
*992 _149_
*993 _150_
*994 _151_
*995 _152_
*996 _153_
*997 _154_
*998 _155_
*999 _156_
*1000 _157_
*1001 _158_
*1002 _159_
*1003 _160_
*1004 _161_
*1005 _162_
*1006 _163_
*1007 _164_
*1008 _165_
*1009 _166_
*1010 _167_
*1011 _168_
*1012 _169_
*1013 _170_
*1014 _171_
*1015 _172_
*1016 _173_
*1017 _174_
*1018 _175_
*1019 _176_
*1020 _177_
*1021 _178_
*1022 _179_
*1023 _180_
*1024 _181_
*1025 _182_
*1026 _183_
*1027 _184_
*1028 _185_
*1029 _186_
*1030 _187_
*1031 _188_
*1032 _189_
*1033 _190_
*1034 _191_
*1035 _192_
*1036 _193_
*1037 _194_
*1038 _195_
*1039 _196_
*1040 _197_
*1041 _198_
*1042 _199_
*1043 _200_
*1044 _201_
*1045 _202_
*1046 _203_
*1047 _204_
*1048 _205_
*1049 _206_
*1050 _207_
*1051 _208_
*1052 _209_
*1053 _210_
*1054 _211_
*1055 _212_
*1056 _213_
*1057 _214_
*1058 _215_
*1059 _216_
*1060 _217_
*1061 _218_
*1062 _219_
*1063 _220_
*1064 _221_
*1065 _222_
*1066 _223_
*1067 _224_
*1068 _225_
*1069 _226_
*1070 _227_
*1071 _228_
*1072 _229_
*1073 _230_
*1074 _231_
*1075 _232_
*1076 _233_
*1077 _234_
*1078 _235_
*1079 _236_
*1080 _237_
*1081 _238_
*1082 _239_
*1083 _240_
*1084 _241_
*1085 _242_
*1086 _243_
*1087 _244_
*1088 _245_
*1089 _246_
*1090 _247_
*1091 _248_
*1092 _249_
*1093 _250_
*1094 _251_
*1095 _252_
*1096 _253_
*1097 _254_
*1098 _255_
*1099 _256_
*1100 _257_
*1101 _258_
*1102 _259_
*1103 _260_
*1104 _261_
*1105 _262_
*1106 _263_
*1107 _264_
*1108 _265_
*1109 _266_
*1110 _267_
*1111 _268_
*1112 _269_
*1113 _270_
*1114 _271_
*1115 _272_
*1116 _273_
*1117 _274_
*1118 _275_
*1119 _276_
*1120 _277_
*1121 _278_
*1122 _279_
*1123 _280_
*1124 _281_
*1125 _282_
*1126 _283_
*1127 _284_
*1128 _285_
*1129 _286_
*1130 _287_
*1131 _288_
*1132 _289_
*1133 _290_
*1134 _291_
*1135 _292_
*1136 _293_
*1137 _294_
*1138 _295_
*1139 _296_
*1140 _297_
*1141 _298_
*1142 _299_
*1143 _300_
*1144 _301_
*1145 _302_
*1146 _303_
*1147 _304_
*1148 _305_
*1149 _306_
*1150 _307_
*1151 _308_
*1152 _309_
*1153 _310_
*1154 _311_
*1155 _312_
*1156 _313_
*1157 _314_
*1158 _315_
*1159 _316_
*1160 _317_
*1161 _318_
*1162 _319_
*1163 _320_
*1164 _321_
*1165 _322_
*1166 _323_
*1167 _324_
*1168 _325_
*1169 _326_
*1170 _327_
*1171 _328_
*1172 _329_
*1173 _330_
*1174 _331_
*1175 clkbuf_0_clk
*1176 clkbuf_3_0__f_clk
*1177 clkbuf_3_1__f_clk
*1178 clkbuf_3_2__f_clk
*1179 clkbuf_3_3__f_clk
*1180 clkbuf_3_4__f_clk
*1181 clkbuf_3_5__f_clk
*1182 clkbuf_3_6__f_clk
*1183 clkbuf_3_7__f_clk
*1184 clkload0
*1185 clkload1
*1186 clkload2
*1187 clkload3
*1188 clkload4
*1189 clkload5
*1190 input1
*1191 input10
*1192 input11
*1193 input12
*1194 input13
*1195 input14
*1196 input15
*1197 input16
*1198 input17
*1199 input18
*1200 input19
*1201 input2
*1202 input20
*1203 input21
*1204 input22
*1205 input23
*1206 input24
*1207 input25
*1208 input26
*1209 input27
*1210 input28
*1211 input29
*1212 input3
*1213 input30
*1214 input31
*1215 input32
*1216 input33
*1217 input4
*1218 input5
*1219 input6
*1220 input7
*1221 input8
*1222 input9
*1223 output34

*PORTS
a[0] I
a[10] I
a[11] I
a[12] I
a[13] I
a[14] I
a[15] I
a[16] I
a[17] I
a[18] I
a[19] I
a[1] I
a[20] I
a[21] I
a[22] I
a[23] I
a[24] I
a[25] I
a[26] I
a[27] I
a[28] I
a[29] I
a[2] I
a[30] I
a[31] I
a[3] I
a[4] I
a[5] I
a[6] I
a[7] I
a[8] I
a[9] I
clk I
rst I
x I
y O

*D_NET *3 0.00121149
*CONN
*P a[0] I
*I *1190:A I *D sky130_fd_sc_hd__buf_1
*CAP
1 a[0] 0.000605744
2 *1190:A 0
3 *3:9 0.000605744
4 *3:9 *1193:A 0
5 *3:9 *295:10 0
*RES
1 a[0] *3:9 27.7393 
2 *3:9 *1190:A 23 
*END

*D_NET *4 0.00114792
*CONN
*P a[10] I
*I *1201:A I *D sky130_fd_sc_hd__buf_1
*CAP
1 a[10] 0.000543945
2 *1201:A 0.000543945
3 *1201:A *1212:A 0
4 *1201:A *34:9 0
5 *1201:A *300:8 2.93845e-05
6 *1201:A *300:10 3.0647e-05
*RES
1 a[10] *1201:A 49.7864 
*END

*D_NET *5 0.00108304
*CONN
*P a[11] I
*I *1212:A I *D sky130_fd_sc_hd__buf_1
*CAP
1 a[11] 0.000541521
2 *1212:A 0.000541521
3 *1212:A *1217:A 0
4 *1212:A *300:10 0
5 *1201:A *1212:A 0
*RES
1 a[11] *1212:A 49.7864 
*END

*D_NET *6 0.0010743
*CONN
*P a[12] I
*I *1217:A I *D sky130_fd_sc_hd__buf_1
*CAP
1 a[12] 0.000537149
2 *1217:A 0.000537149
3 *1217:A *1218:A 0
4 *1212:A *1217:A 0
*RES
1 a[12] *1217:A 49.7864 
*END

*D_NET *7 0.00107563
*CONN
*P a[13] I
*I *1218:A I *D sky130_fd_sc_hd__buf_1
*CAP
1 a[13] 0.000537817
2 *1218:A 0.000537817
3 *1218:A *1219:A 0
4 *1217:A *1218:A 0
*RES
1 a[13] *1218:A 49.7864 
*END

*D_NET *8 0.00108585
*CONN
*P a[14] I
*I *1219:A I *D sky130_fd_sc_hd__buf_1
*CAP
1 a[14] 0.000542925
2 *1219:A 0.000542925
3 *1219:A *1220:A 0
4 *1218:A *1219:A 0
*RES
1 a[14] *1219:A 49.7864 
*END

*D_NET *9 0.00112046
*CONN
*P a[15] I
*I *1220:A I *D sky130_fd_sc_hd__buf_1
*CAP
1 a[15] 0.00052783
2 *1220:A 0.00052783
3 *1220:A *1221:A 0
4 *1220:A *306:10 6.48049e-05
5 *1219:A *1220:A 0
*RES
1 a[15] *1220:A 49.7864 
*END

*D_NET *10 0.00108307
*CONN
*P a[16] I
*I *1221:A I *D sky130_fd_sc_hd__buf_1
*CAP
1 a[16] 0.000541536
2 *1221:A 0.000541536
3 *1221:A *1222:A 0
4 *1220:A *1221:A 0
*RES
1 a[16] *1221:A 49.7864 
*END

*D_NET *11 0.00115332
*CONN
*P a[17] I
*I *1222:A I *D sky130_fd_sc_hd__buf_1
*CAP
1 a[17] 0.000538566
2 *1222:A 0.000538566
3 *1222:A *12:9 0
4 *1222:A *307:10 5.67058e-05
5 *1222:A *308:6 1.94812e-05
6 *1221:A *1222:A 0
*RES
1 a[17] *1222:A 49.7864 
*END

*D_NET *12 0.00128836
*CONN
*P a[18] I
*I *1191:A I *D sky130_fd_sc_hd__buf_1
*CAP
1 a[18] 0.00057767
2 *1191:A 0
3 *12:9 0.00057767
4 *12:9 *13:9 0
5 *12:9 *278:8 5.41288e-05
6 *12:9 *310:8 7.88926e-05
7 *1222:A *12:9 0
*RES
1 a[18] *12:9 27.7393 
2 *12:9 *1191:A 23 
*END

*D_NET *13 0.00129134
*CONN
*P a[19] I
*I *1192:A I *D sky130_fd_sc_hd__buf_1
*CAP
1 a[19] 0.000606222
2 *1192:A 0
3 *13:9 0.000606222
4 *13:9 *15:9 0
5 *13:9 *310:8 7.88926e-05
6 *12:9 *13:9 0
*RES
1 a[19] *13:9 27.7393 
2 *13:9 *1192:A 23 
*END

*D_NET *14 0.00117515
*CONN
*P a[1] I
*I *1193:A I *D sky130_fd_sc_hd__buf_1
*CAP
1 a[1] 0.000537395
2 *1193:A 0.000537395
3 *1193:A *1205:A 0
4 *1193:A *280:8 6.17437e-06
5 *1193:A *295:8 2.93845e-05
6 *1193:A *295:10 6.48049e-05
7 *3:9 *1193:A 0
*RES
1 a[1] *1193:A 49.7864 
*END

*D_NET *15 0.00131322
*CONN
*P a[20] I
*I *1194:A I *D sky130_fd_sc_hd__buf_1
*CAP
1 a[20] 0.000590701
2 *1194:A 0
3 *15:9 0.000590701
4 *15:9 *1195:A 0
5 *15:9 *281:8 2.93845e-05
6 *15:9 *308:12 2.64506e-05
7 *15:9 *310:8 7.59794e-05
8 *13:9 *15:9 0
*RES
1 a[20] *15:9 27.7393 
2 *15:9 *1194:A 23 
*END

*D_NET *16 0.00115923
*CONN
*P a[21] I
*I *1195:A I *D sky130_fd_sc_hd__clkbuf_1
*CAP
1 a[21] 0.000543853
2 *1195:A 0.000543853
3 *1195:A *17:9 0
4 *1195:A *308:12 6.7177e-06
5 *1195:A *310:10 6.48049e-05
6 *15:9 *1195:A 0
*RES
1 a[21] *1195:A 49.7864 
*END

*D_NET *17 0.00120605
*CONN
*P a[22] I
*I *1196:A I *D sky130_fd_sc_hd__clkbuf_1
*CAP
1 a[22] 0.000444229
2 *1196:A 0
3 *17:9 0.000444229
4 *17:9 *1198:A 0
5 *17:9 *18:9 0.000317595
6 *1195:A *17:9 0
*RES
1 a[22] *17:9 27.7393 
2 *17:9 *1196:A 23 
*END

*D_NET *18 0.00137142
*CONN
*P a[23] I
*I *1197:A I *D sky130_fd_sc_hd__clkbuf_1
*CAP
1 a[23] 0.000486119
2 *1197:A 0
3 *18:9 0.000486119
4 *18:9 *1198:A 0
5 *18:9 *284:10 8.15864e-05
6 *17:9 *18:9 0.000317595
*RES
1 a[23] *18:9 28.6921 
2 *18:9 *1197:A 23 
*END

*D_NET *19 0.00108152
*CONN
*P a[24] I
*I *1198:A I *D sky130_fd_sc_hd__clkbuf_1
*CAP
1 a[24] 0.00054076
2 *1198:A 0.00054076
3 *1198:A *1199:A 0
4 *17:9 *1198:A 0
5 *18:9 *1198:A 0
*RES
1 a[24] *1198:A 49.7864 
*END

*D_NET *20 0.0010743
*CONN
*P a[25] I
*I *1199:A I *D sky130_fd_sc_hd__clkbuf_1
*CAP
1 a[25] 0.000537149
2 *1199:A 0.000537149
3 *1199:A *1200:A 0
4 *1198:A *1199:A 0
*RES
1 a[25] *1199:A 49.7864 
*END

*D_NET *21 0.0010743
*CONN
*P a[26] I
*I *1200:A I *D sky130_fd_sc_hd__buf_1
*CAP
1 a[26] 0.000537149
2 *1200:A 0.000537149
3 *1200:A *22:9 0
4 *1199:A *1200:A 0
*RES
1 a[26] *1200:A 49.7864 
*END

*D_NET *22 0.00115644
*CONN
*P a[27] I
*I *1202:A I *D sky130_fd_sc_hd__buf_1
*CAP
1 a[27] 0.00057822
2 *1202:A 0
3 *22:9 0.00057822
4 *22:9 *23:9 0
5 *1200:A *22:9 0
*RES
1 a[27] *22:9 27.7393 
2 *22:9 *1202:A 23 
*END

*D_NET *23 0.00115644
*CONN
*P a[28] I
*I *1203:A I *D sky130_fd_sc_hd__buf_1
*CAP
1 a[28] 0.00057822
2 *1203:A 0
3 *23:9 0.00057822
4 *23:9 *1204:A 0
5 *22:9 *23:9 0
*RES
1 a[28] *23:9 27.7393 
2 *23:9 *1203:A 23 
*END

*D_NET *24 0.00107296
*CONN
*P a[29] I
*I *1204:A I *D sky130_fd_sc_hd__buf_1
*CAP
1 a[29] 0.000536481
2 *1204:A 0.000536481
3 *1204:A *1206:A 0
4 *23:9 *1204:A 0
*RES
1 a[29] *1204:A 49.7864 
*END

*D_NET *25 0.00112233
*CONN
*P a[2] I
*I *1205:A I *D sky130_fd_sc_hd__buf_1
*CAP
1 a[2] 0.000561163
2 *1205:A 0.000561163
3 *1205:A *1208:A 0
4 *1193:A *1205:A 0
*RES
1 a[2] *1205:A 49.7864 
*END

*D_NET *26 0.00101852
*CONN
*P a[30] I
*I *1206:A I *D sky130_fd_sc_hd__buf_1
*CAP
1 a[30] 0.00050926
2 *1206:A 0.00050926
3 *1206:A *27:9 0
4 *1204:A *1206:A 0
*RES
1 a[30] *1206:A 49.165 
*END

*D_NET *27 0.00148498
*CONN
*P a[31] I
*I *1207:A I *D sky130_fd_sc_hd__clkbuf_1
*CAP
1 a[31] 0.00074249
2 *1207:A 0
3 *27:9 0.00074249
4 *27:9 *293:10 0
5 *1206:A *27:9 0
*RES
1 a[31] *27:9 30.6807 
2 *27:9 *1207:A 23 
*END

*D_NET *28 0.0010983
*CONN
*P a[3] I
*I *1208:A I *D sky130_fd_sc_hd__buf_1
*CAP
1 a[3] 0.000549148
2 *1208:A 0.000549148
3 *1208:A *29:9 0
4 *1205:A *1208:A 0
*RES
1 a[3] *1208:A 49.165 
*END

*D_NET *29 0.00139079
*CONN
*P a[4] I
*I *1209:A I *D sky130_fd_sc_hd__buf_1
*CAP
1 a[4] 0.000552586
2 *1209:A 0
3 *29:9 0.000552586
4 *29:9 *984:B 0.000143655
5 *29:9 *30:9 0
6 *29:9 *77:65 0.00014196
7 *1208:A *29:9 0
*RES
1 a[4] *29:9 27.7393 
2 *29:9 *1209:A 23 
*END

*D_NET *30 0.00133696
*CONN
*P a[5] I
*I *1210:A I *D sky130_fd_sc_hd__clkbuf_1
*CAP
1 a[5] 0.000581354
2 *1210:A 0
3 *30:9 0.000581354
4 *30:9 *1211:A 0
5 *30:9 *77:65 0.00014196
6 *30:9 *292:10 0
7 *30:9 *297:6 3.22879e-05
8 *29:9 *30:9 0
*RES
1 a[5] *30:9 27.7393 
2 *30:9 *1210:A 23 
*END

*D_NET *31 0.00115221
*CONN
*P a[6] I