*SPEF "ieee 1481-1999"
*DESIGN "twos_complement"
*DATE "13:25:40 Saturday April 26, 2025"
*VENDOR "The OpenROAD Project"
*PROGRAM "OpenROAD"
*VERSION "b16bda7e82721d10566ff7e2b68f1ff0be9f9e38"
*DESIGN_FLOW "NAME_SCOPE LOCAL" "PIN_CAP NONE"
*DIVIDER /
*DELIMITER :
*BUS_DELIMITER []
*T_UNIT 1 NS
*C_UNIT 1 PF
*R_UNIT 1 OHM
*L_UNIT 1 HENRY

*NAME_MAP
*3 in[0]
*4 in[1]
*5 in[2]
*6 in[3]
*7 in[4]
*8 in[5]
*9 in[6]
*10 in[7]
*11 out[0]
*12 out[1]
*13 out[2]
*14 out[3]
*15 out[4]
*16 out[5]
*17 out[6]
*18 out[7]
*19 _00_
*20 _01_
*21 _02_
*22 _03_
*23 _04_
*24 _05_
*25 _06_
*26 _07_
*27 _08_
*28 _09_
*29 net1
*30 net10
*31 net11
*32 net12
*33 net13
*34 net14
*35 net15
*36 net16
*37 net2
*38 net3
*39 net4
*40 net5
*41 net6
*42 net7
*43 net8
*44 net9
*45 FILLER_0_0_21
*46 FILLER_0_0_27
*47 FILLER_0_0_29
*48 FILLER_0_0_37
*49 FILLER_0_0_9
*50 FILLER_0_10_18
*51 FILLER_0_10_26
*52 FILLER_0_10_29
*53 FILLER_0_10_41
*54 FILLER_0_10_6
*55 FILLER_0_11_18
*56 FILLER_0_11_30
*57 FILLER_0_11_43
*58 FILLER_0_11_47
*59 FILLER_0_11_6
*60 FILLER_0_12_13
*61 FILLER_0_12_25
*62 FILLER_0_12_29
*63 FILLER_0_12_37
*64 FILLER_0_1_15
*65 FILLER_0_1_27
*66 FILLER_0_1_3
*67 FILLER_0_1_32
*68 FILLER_0_1_44
*69 FILLER_0_2_15
*70 FILLER_0_2_27
*71 FILLER_0_2_29
*72 FILLER_0_2_3
*73 FILLER_0_2_35
*74 FILLER_0_2_41
*75 FILLER_0_3_18
*76 FILLER_0_3_30
*77 FILLER_0_3_36
*78 FILLER_0_3_6
*79 FILLER_0_4_11
*80 FILLER_0_4_23
*81 FILLER_0_4_27
*82 FILLER_0_4_29
*83 FILLER_0_4_3
*84 FILLER_0_4_7
*85 FILLER_0_5_12
*86 FILLER_0_5_23
*87 FILLER_0_5_35
*88 FILLER_0_5_6
*89 FILLER_0_6_10
*90 FILLER_0_6_22
*91 FILLER_0_6_29
*92 FILLER_0_6_41
*93 FILLER_0_6_47
*94 FILLER_0_7_15
*95 FILLER_0_7_27
*96 FILLER_0_7_3
*97 FILLER_0_7_36
*98 FILLER_0_8_12
*99 FILLER_0_8_24
*100 FILLER_0_8_29
*101 FILLER_0_8_39
*102 FILLER_0_8_43
*103 FILLER_0_9_12
*104 FILLER_0_9_24
*105 FILLER_0_9_3
*106 FILLER_0_9_36
*107 PHY_EDGE_ROW_0_Left_13
*108 PHY_EDGE_ROW_0_Right_0
*109 PHY_EDGE_ROW_10_Left_23
*110 PHY_EDGE_ROW_10_Right_10
*111 PHY_EDGE_ROW_11_Left_24
*112 PHY_EDGE_ROW_11_Right_11
*113 PHY_EDGE_ROW_12_Left_25
*114 PHY_EDGE_ROW_12_Right_12
*115 PHY_EDGE_ROW_1_Left_14
*116 PHY_EDGE_ROW_1_Right_1
*117 PHY_EDGE_ROW_2_Left_15
*118 PHY_EDGE_ROW_2_Right_2
*119 PHY_EDGE_ROW_3_Left_16
*120 PHY_EDGE_ROW_3_Right_3
*121 PHY_EDGE_ROW_4_Left_17
*122 PHY_EDGE_ROW_4_Right_4
*123 PHY_EDGE_ROW_5_Left_18
*124 PHY_EDGE_ROW_5_Right_5
*125 PHY_EDGE_ROW_6_Left_19
*126 PHY_EDGE_ROW_6_Right_6
*127 PHY_EDGE_ROW_7_Left_20
*128 PHY_EDGE_ROW_7_Right_7
*129 PHY_EDGE_ROW_8_Left_21
*130 PHY_EDGE_ROW_8_Right_8
*131 PHY_EDGE_ROW_9_Left_22
*132 PHY_EDGE_ROW_9_Right_9
*133 TAP_TAPCELL_ROW_0_26
*134 TAP_TAPCELL_ROW_10_31
*135 TAP_TAPCELL_ROW_12_32
*136 TAP_TAPCELL_ROW_2_27
*137 TAP_TAPCELL_ROW_4_28
*138 TAP_TAPCELL_ROW_6_29
*139 TAP_TAPCELL_ROW_8_30
*140 _10_
*141 _11_
*142 _12_
*143 _13_
*144 _14_
*145 _15_
*146 _16_
*147 _17_
*148 _18_
*149 _19_
*150 _20_
*151 _21_
*152 _22_
*153 _23_
*154 _24_
*155 _25_
*156 _26_
*157 _27_
*158 input1
*159 input2
*160 input3
*161 input4
*162 input5
*163 input6
*164 input7
*165 input8
*166 output10
*167 output11
*168 output12
*169 output13
*170 output14
*171 output15
*172 output16
*173 output9

*PORTS
in[0] I
in[1] I
in[2] I
in[3] I
in[4] I
in[5] I
in[6] I
in[7] I
out[0] O
out[1] O
out[2] O
out[3] O
out[4] O
out[5] O
out[6] O
out[7] O

*D_NET *3 0.000986291
*CONN
*P in[0] I
*I *158:A I *D sky130_fd_sc_hd__dlymetal6s2s_1
*CAP
1 in[0] 0.000493145
2 *158:A 0.000493145
3 *158:A *159:A 0
*RES
1 in[0] *158:A 9.94677 
*END

*D_NET *4 0.000708939
*CONN
*P in[1] I
*I *159:A I *D sky130_fd_sc_hd__buf_1
*CAP
1 in[1] 0.00035447
2 *159:A 0.00035447
3 *159:A *160:A 0
4 *158:A *159:A 0
*RES
1 in[1] *159:A 8.3643 
*END

*D_NET *5 0.000540679
*CONN
*P in[2] I
*I *160:A I *D sky130_fd_sc_hd__buf_1
*CAP
1 in[2] 0.000267424
2 *160:A 0.000267424
3 *160:A *161:A 0
4 *160:A *38:14 5.83121e-06
5 *159:A *160:A 0
*RES
1 in[2] *160:A 6.8343 
*END

*D_NET *6 0.00105277
*CONN
*P in[3] I
*I *161:A I *D sky130_fd_sc_hd__clkbuf_1
*CAP
1 in[3] 0.000388143
2 *161:A 0.000388143
3 *161:A *144:A_N 4.66108e-05
4 *161:A *150:D 2.75145e-05
5 *161:A *151:B1 0.000159333
6 *161:A *162:A 0
7 *161:A *21:36 4.30228e-05
8 *161:A *38:14 0
9 *160:A *161:A 0
*RES
1 in[3] *161:A 9.6987 
*END

*D_NET *7 0.0005615
*CONN
*P in[4] I
*I *162:A I *D sky130_fd_sc_hd__buf_1
*CAP
1 in[4] 0.00028075
2 *162:A 0.00028075
3 *162:A *144:A_N 0
4 *162:A *163:A 0
5 *161:A *162:A 0
*RES
1 in[4] *162:A 7.0893 
*END

*D_NET *8 0.000666425
*CONN
*P in[5] I
*I *163:A I *D sky130_fd_sc_hd__buf_1
*CAP
1 in[5] 0.000333212
2 *163:A 0.000333212
3 *163:A *144:A_N 0
4 *163:A *164:A 0
5 *163:A *42:8 0
6 *162:A *163:A 0
*RES
1 in[5] *163:A 8.1093 
*END

*D_NET *9 0.000523624
*CONN
*P in[6] I
*I *164:A I *D sky130_fd_sc_hd__buf_1
*CAP
1 in[6] 0.000261812
2 *164:A 0.000261812
3 *164:A *165:A 0
4 *163:A *164:A 0
*RES
1 in[6] *164:A 6.8343 
*END

*D_NET *10 0.00115517
*CONN
*P in[7] I
*I *165:A I *D sky130_fd_sc_hd__clkbuf_1
*CAP
1 in[7] 0.000577586
2 *165:A 0.000577586
3 *164:A *165:A 0
*RES
1 in[7] *165:A 10.6316 
*END

*D_NET *11 0.00109227
*CONN
*P out[0] O
*I *173:X O *D sky130_fd_sc_hd__buf_2
*CAP
1 out[0] 0.000546133
2 *173:X 0.000546133
3 out[0] out[1] 0
*RES
1 *173:X out[0] 9.66983 
*END

*D_NET *12 0.000411239
*CONN
*P out[1] O
*I *166:X O *D sky130_fd_sc_hd__buf_2
*CAP
1 out[1] 0.00020562
2 *166:X 0.00020562
3 out[1] out[2] 0
4 out[0] out[1] 0
*RES
1 *166:X out[1] 4.84677 
*END

*D_NET *13 0.000411283
*CONN
*P out[2] O
*I *167:X O *D sky130_fd_sc_hd__buf_2
*CAP
1 out[2] 0.000201307
2 *167:X 0.000201307
3 out[2] out[3] 0
4 out[2] *156:B 8.66976e-06
5 out[1] out[2] 0
*RES
1 *167:X out[2] 4.84677 
*END

*D_NET *14 0.000543528
*CONN
*P out[3] O
*I *168:X O *D sky130_fd_sc_hd__buf_2
*CAP
1 out[3] 0.000241419
2 *168:X 0.000241419
3 out[3] out[4] 0
4 out[3] *168:A 6.06899e-05
5 out[2] out[3] 0
*RES
1 *168:X out[3] 5.86677 
*END

*D_NET *15 0.00060651
*CONN
*P out[4] O
*I *169:X O *D sky130_fd_sc_hd__buf_2
*CAP
1 out[4] 0.000292445
2 *169:X 0.000292445
3 out[4] out[5] 0
4 out[4] *142:B1 2.16191e-05
5 out[3] out[4] 0
*RES
1 *169:X out[4] 6.6087 
*END

*D_NET *16 0.00109489
*CONN
*P out[5] O
*I *170:X O *D sky130_fd_sc_hd__buf_2
*CAP
1 out[5] 0.000464692
2 *170:X 0.000464692
3 out[5] out[6] 0
4 out[5] *171:A 0.000108167
5 out[5] *172:A 5.73375e-05
6 out[4] out[5] 0
*RES
1 *170:X out[5] 6.27463 
*END

*D_NET *17 0.000725035
*CONN
*P out[6] O
*I *171:X O *D sky130_fd_sc_hd__buf_2
*CAP
1 out[6] 0.000362518
2 *171:X 0.000362518
3 out[6] out[7] 0
4 out[5] out[6] 0
*RES
1 *171:X out[6] 5.19637 
*END

*D_NET *18 0.000971234
*CONN
*P out[7] O
*I *172:X O *D sky130_fd_sc_hd__clkbuf_4
*CAP
1 out[7] 0.000485617
2 *172:X 0.000485617
3 out[6] out[7] 0
*RES
1 *172:X out[7] 10.1435 
*END

*D_NET *19 0.003568
*CONN
*I *156:A I *D sky130_fd_sc_hd__nor2_1
*I *141:B I *D sky130_fd_sc_hd__xnor2_1
*I *140:Y O *D sky130_fd_sc_hd__nor2_1
*CAP
1 *156:A 0.000614039
2 *141:B 0.000178346
3 *140:Y 0
4 *19:4 0.000792385
5 *141:B *140:B 2.68526e-05
6 *141:B *41:14 0.000409132
7 *141:B *42:8 0.000410792
8 *156:A *140:A 0.00102354
9 *156:A *140:B 2.20014e-05
10 *156:A *169:A 9.09152e-05
*RES
1 *140:Y *19:4 1.6 
2 *19:4 *141:B 11.435 
3 *19:4 *156:A 13.105 
*END

*D_NET *20 0.00390751
*CONN
*I *144:A_N I *D sky130_fd_sc_hd__and2b_1
*I *142:X O *D sky130_fd_sc_hd__o31a_1
*CAP
1 *144:A_N 0.00122072
2 *142:X 0.00122072
3 *144:A_N *172:A 0.000111233
4 *144:A_N *38:14 0.000342942
5 *144:A_N *41:14 8.49205e-05
6 *144:A_N *42:8 0.000880354
7 *161:A *144:A_N 4.66108e-05
8 *162:A *144:A_N 0
9 *163:A *144:A_N 0
*RES
1 *142:X *144:A_N 30.57 
*END

*D_NET *21 0.00593735
*CONN
*I *151:A3 I *D sky130_fd_sc_hd__o31ai_1
*I *144:B I *D sky130_fd_sc_hd__and2b_1
*I *150:D I *D sky130_fd_sc_hd__or4_1
*I *147:B I *D sky130_fd_sc_hd__and2_1
*I *146:B I *D sky130_fd_sc_hd__nor2_1
*I *143:X O *D sky130_fd_sc_hd__or4_2
*CAP
1 *151:A3 0
2 *144:B 0
3 *150:D 8.54736e-05
4 *147:B 3.59136e-05
5 *146:B 0.000120648
6 *143:X 0.000277437
7 *21:36 0.000577803
8 *21:34 0.000697207
9 *21:10 0.000350207
10 *21:8 0.000675959
11 *146:B *146:A 2.03321e-05
12 *146:B *171:A 0
13 *146:B *23:12 6.47594e-05
14 *147:B *145:A 0.000238137
15 *147:B *147:A 0.000238137
16 *150:D *150:C 0.000141599
17 *150:D *29:16 0
18 *150:D *38:14 1.01661e-05
19 *150:D *41:14 9.54469e-05
20 *21:8 *143:A 1.34503e-05
21 *21:8 *152:A 1.33285e-05
22 *21:8 *172:A 0.00015639
23 *21:8 *37:33 0.000160635
24 *21:10 *148:B 0.000121688
25 *21:10 *169:A 6.28765e-05
26 *21:10 *171:A 0
27 *21:10 *23:12 0.000266428
28 *21:34 *151:A2 3.09164e-05
29 *21:34 *152:B 0.000466579
30 *21:34 *169:A 4.31189e-05
31 *21:34 *173:A 0.000435884
32 *21:34 *23:12 2.94708e-05
33 *21:36 *151:A1 2.96334e-05
34 *21:36 *151:B1 0.000407192
35 *161:A *150:D 2.75145e-05
36 *161:A *21:36 4.30228e-05
*RES
1 *143:X *21:8 7.155 
2 *21:8 *21:10 5.715 
3 *21:10 *146:B 5.94 
4 *21:10 *147:B 5.775 
5 *21:8 *21:34 9.245 
6 *21:34 *21:36 8.73 
7 *21:36 *150:D 7.94 
8 *21:36 *144:B 1.6 
9 *21:34 *151:A3 1.6 
*END

*D_NET *22 0.00412029
*CONN
*I *145:A I *D sky130_fd_sc_hd__clkbuf_1
*I *144:X O *D sky130_fd_sc_hd__and2b_1
*CAP
1 *145:A 0.00130031
2 *144:X 0.00130031
3 *145:A *147:A 8.30487e-05
4 *145:A *148:B 3.00381e-05
5 *145:A *168:A 3.00381e-05
6 *145:A *40:14 0.000209233
7 *145:A *41:14 0.000874944
8 *145:A *42:8 5.42303e-05
9 *147:B *145:A 0.000238137
*RES
1 *144:X *145:A 32.7 
*END

*D_NET *23 0.00448652
*CONN
*I *149:B I *D sky130_fd_sc_hd__xnor2_1
*I *148:A I *D sky130_fd_sc_hd__nor2_1
*I *146:Y O *D sky130_fd_sc_hd__nor2_1
*CAP
1 *149:B 0.000502498
2 *148:A 0
3 *146:Y 0.000535483
4 *23:12 0.00103798
5 *149:B *155:B 0.000198939
6 *149:B *166:A 7.21296e-06
7 *149:B *167:A 0.000229364
8 *149:B *169:A 1.1392e-05
9 *149:B *170:A 0.000175309
10 *149:B *171:A 9.54469e-05
11 *149:B *173:A 0
12 *149:B *37:10 0.000132443
13 *149:B *37:25 0.00042929
14 *23:12 *146:A 9.54399e-05
15 *23:12 *152:B 0.00035825
16 *23:12 *39:16 0.000316813
17 *23:12 *40:14 0
18 *146:B *23:12 6.47594e-05
19 *21:10 *23:12 0.000266428
20 *21:34 *23:12 2.94708e-05
*RES
1 *146:Y *23:12 18.575 
2 *23:12 *148:A 1.6 
3 *23:12 *149:B 18.335 
*END

*D_NET *24 0.00197354
*CONN
*I *148:B I *D sky130_fd_sc_hd__nor2_1
*I *147:X O *D sky130_fd_sc_hd__and2_1
*CAP
1 *148:B 0.000307877
2 *147:X 0.000307877
3 *148:B *153:A 0.000336837
4 *148:B *169:A 0.000457821
5 *148:B *170:A 2.3038e-05
6 *148:B *171:A 6.32914e-05
7 *148:B *172:A 0.000286635
8 *148:B *173:A 3.84331e-05
9 *145:A *148:B 3.00381e-05
10 *21:10 *148:B 0.000121688
*RES
1 *147:X *148:B 17.445 
*END

*D_NET *25 0.00364054
*CONN
*I *152:A I *D sky130_fd_sc_hd__and2_1
*I *154:B I *D sky130_fd_sc_hd__xor2_1
*I *150:X O *D sky130_fd_sc_hd__or4_1
*CAP
1 *152:A 0.00024997
2 *154:B 0
3 *150:X 0.000418129
4 *25:12 0.000668099
5 *152:A *152:B 0.000268833
6 *152:A *154:A 4.82919e-05
7 *152:A *157:A 0.000159156
8 *152:A *172:A 0.000647809
9 *152:A *173:A 0.000203402
10 *152:A *37:33 0.000122331
11 *152:A *39:16 3.09179e-05
12 *152:A *40:8 9.80032e-06
13 *25:12 *154:A 2.97746e-05
14 *25:12 *29:16 0.000633065
15 *25:12 *29:20 1.52184e-05
16 *25:12 *41:14 0
17 *25:12 *41:25 0.000122411
18 *21:8 *152:A 1.33285e-05
*RES
1 *150:X *25:12 14.495 
2 *25:12 *154:B 1.6 
3 *25:12 *152:A 10.675 
*END

*D_NET *26 0.00173139
*CONN
*I *152:B I *D sky130_fd_sc_hd__and2_1
*I *151:Y O *D sky130_fd_sc_hd__o31ai_1
*CAP
1 *152:B 0.000195435
2 *151:Y 0.000195435
3 *152:B *173:A 8.40269e-05
4 *152:B *39:16 0.000162831
5 *152:A *152:B 0.000268833
6 *21:34 *152:B 0.000466579
7 *23:12 *152:B 0.00035825
*RES
1 *151:Y *152:B 15.18 
*END

*D_NET *27 0.00115038
*CONN
*I *153:A I *D sky130_fd_sc_hd__clkbuf_1
*I *152:X O *D sky130_fd_sc_hd__and2_1
*CAP
1 *153:A 0.000137283
2 *152:X 0.000137283
3 *153:A *167:A 0.000319174
4 *153:A *171:A 9.60974e-05
5 *153:A *173:A 0.000123708
6 *148:B *153:A 0.000336837
*RES
1 *152:X *153:A 12.915 
*END

*D_NET *28 0.00292716
*CONN
*I *156:B I *D sky130_fd_sc_hd__nor2_1
*I *155:X O *D sky130_fd_sc_hd__and2_1
*CAP
1 *156:B 0.00046129
2 *155:X 0.00046129
3 *156:B *166:A 0.00116152
4 *156:B *168:A 0.000715039
5 *156:B *170:A 0.000119351
6 *156:B *171:A 0
7 out[2] *156:B 8.66976e-06
*RES
1 *155:X *156:B 21.78 
*END

*D_NET *29 0.00820344
*CONN
*I *155:B I *D sky130_fd_sc_hd__and2_1
*I *157:A I *D sky130_fd_sc_hd__clkbuf_1
*I *143:B I *D sky130_fd_sc_hd__or4_2
*I *142:A2 I *D sky130_fd_sc_hd__o31a_1
*I *140:B I *D sky130_fd_sc_hd__nor2_1
*I *158:X O *D sky130_fd_sc_hd__dlymetal6s2s_1
*CAP
1 *155:B 0.000500645
2 *157:A 3.55792e-05
3 *143:B 2.53627e-05
4 *142:A2 8.25443e-05
5 *140:B 0.000153148
6 *158:X 0.000324154
7 *29:35 0.000695843
8 *29:20 0.00087131
9 *29:16 0.000837915
10 *29:10 0.00149691
11 *140:B *140:A 0.000236305
12 *142:A2 *142:A3 0.000216188
13 *142:A2 *168:A 0.000206817
14 *143:B *142:A3 9.54469e-05
15 *143:B *168:A 8.69157e-05
16 *155:B *37:10 0.000296785
17 *155:B *37:25 2.16917e-05
18 *157:A *40:8 9.10058e-05
19 *29:16 *150:A 0
20 *29:16 *40:14 0
21 *29:16 *40:36 0
22 *29:20 *154:A 5.43553e-05
23 *29:35 *140:A 0.000392495
24 *29:35 *166:A 4.82863e-05
25 *29:35 *169:A 0.000378508
26 *141:B *140:B 2.68526e-05
27 *149:B *155:B 0.000198939
28 *150:D *29:16 0
29 *152:A *157:A 0.000159156
30 *156:A *140:B 2.20014e-05
31 *25:12 *29:16 0.000633065
32 *25:12 *29:20 1.52184e-05
*RES
1 *158:X *29:10 8.445 
2 *29:10 *29:16 13.155 
3 *29:16 *29:20 4.145 
4 *29:20 *140:B 4.825 
5 *29:20 *29:35 12.47 
6 *29:35 *142:A2 6.45 
7 *29:35 *143:B 4.725 
8 *29:16 *157:A 5.085 
9 *29:10 *155:B 12.69 
*END

*D_NET *30 0.00357892
*CONN
*I *166:A I *D sky130_fd_sc_hd__buf_2
*I *156:Y O *D sky130_fd_sc_hd__nor2_1
*CAP
1 *166:A 0.000567381
2 *156:Y 0.000567381
3 *166:A *170:A 0.000192998
4 *166:A *171:A 0
5 *166:A *173:A 0
6 *166:A *37:25 0.00103414
7 *149:B *166:A 7.21296e-06
8 *156:B *166:A 0.00116152
9 *29:35 *166:A 4.82863e-05
*RES
1 *156:Y *166:A 24.105 
*END

*D_NET *31 0.00353256
*CONN
*I *167:A I *D sky130_fd_sc_hd__buf_2
*I *141:Y O *D sky130_fd_sc_hd__xnor2_1
*CAP
1 *167:A 0.000953457
2 *141:Y 0.000953457
3 *167:A *171:A 0.000273015
4 *167:A *173:A 0.000204367
5 *167:A *38:25 0.000599729
6 *149:B *167:A 0.000229364
7 *153:A *167:A 0.000319174
*RES
1 *141:Y *167:A 27.24 
*END

*D_NET *32 0.0022446
*CONN
*I *168:A I *D sky130_fd_sc_hd__buf_2
*I *145:X O *D sky130_fd_sc_hd__clkbuf_1
*CAP
1 *168:A 0.000429969
2 *145:X 0.000429969
3 *168:A *142:A3 6.00852e-05
4 *168:A *171:A 0
5 *168:A *172:A 6.4422e-05
6 *168:A *38:25 0.000160658
7 out[3] *168:A 6.06899e-05
8 *142:A2 *168:A 0.000206817
9 *143:B *168:A 8.69157e-05
10 *145:A *168:A 3.00381e-05
11 *156:B *168:A 0.000715039
*RES
1 *145:X *168:A 19.23 
*END

*D_NET *33 0.00220221
*CONN
*I *169:A I *D sky130_fd_sc_hd__buf_2
*I *148:Y O *D sky130_fd_sc_hd__nor2_1
*CAP
1 *169:A 0.000325913
2 *148:Y 0.000325913
3 *169:A *140:A 0.000119756
4 *169:A *170:A 0.000117708
5 *169:A *173:A 0.000268292
6 *148:B *169:A 0.000457821
7 *149:B *169:A 1.1392e-05
8 *156:A *169:A 9.09152e-05
9 *21:10 *169:A 6.28765e-05
10 *21:34 *169:A 4.31189e-05
11 *29:35 *169:A 0.000378508
*RES
1 *148:Y *169:A 17.025 
*END

*D_NET *34 0.00507314
*CONN
*I *170:A I *D sky130_fd_sc_hd__buf_2
*I *149:Y O *D sky130_fd_sc_hd__xnor2_1
*CAP
1 *170:A 0.00211224
2 *149:Y 0.00211224
3 *170:A *171:A 3.99395e-05
4 *170:A *173:A 1.03833e-05
5 *170:A *37:25 0.000169929
6 *148:B *170:A 2.3038e-05
7 *149:B *170:A 0.000175309
8 *156:B *170:A 0.000119351
9 *166:A *170:A 0.000192998
10 *169:A *170:A 0.000117708
*RES
1 *149:Y *170:A 12.8485 
*END

*D_NET *35 0.00255805
*CONN
*I *171:A I *D sky130_fd_sc_hd__buf_2
*I *153:X O *D sky130_fd_sc_hd__clkbuf_1
*CAP
1 *171:A 0.000631257
2 *153:X 0.000631257
3 *171:A *142:A1 0.000114492
4 *171:A *172:A 0.000205064
5 *171:A *37:25 0.000144096
6 *171:A *37:33 0.000155928
7 out[5] *171:A 0.000108167
8 *146:B *171:A 0
9 *148:B *171:A 6.32914e-05
10 *149:B *171:A 9.54469e-05
11 *153:A *171:A 9.60974e-05
12 *156:B *171:A 0
13 *166:A *171:A 0
14 *167:A *171:A 0.000273015
15 *168:A *171:A 0
16 *170:A *171:A 3.99395e-05
17 *21:10 *171:A 0
*RES
1 *153:X *171:A 23.115 
*END

*D_NET *36 0.00351163
*CONN
*I *172:A I *D sky130_fd_sc_hd__clkbuf_4
*I *154:X O *D sky130_fd_sc_hd__xor2_1
*CAP
1 *172:A 0.000779529
2 *154:X 0.000779529
3 *172:A *142:A1 0.000276279
4 *172:A *37:33 0.000147397
5 out[5] *172:A 5.73375e-05
6 *144:A_N *172:A 0.000111233
7 *148:B *172:A 0.000286635
8 *152:A *172:A 0.000647809
9 *168:A *172:A 6.4422e-05
10 *171:A *172:A 0.000205064
11 *21:8 *172:A 0.00015639
*RES
1 *154:X *172:A 29.95 
*END

*D_NET *37 0.00844104
*CONN
*I *143:A I *D sky130_fd_sc_hd__or4_2
*I *140:A I *D sky130_fd_sc_hd__nor2_1
*I *142:A1 I *D sky130_fd_sc_hd__o31a_1
*I *155:A I *D sky130_fd_sc_hd__and2_1
*I *159:X O *D sky130_fd_sc_hd__buf_1
*CAP
1 *143:A 5.69511e-05
2 *140:A 0.000187746
3 *142:A1 0.000238389
4 *155:A 0
5 *159:X 0.000718655
6 *37:33 0.000544562
7 *37:25 0.000542685
8 *37:10 0.00108596
9 *143:A *39:16 6.58339e-05
10 *37:25 *39:16 0
11 *37:33 *39:16 9.27255e-06
12 *140:B *140:A 0.000236305
13 *149:B *37:10 0.000132443
14 *149:B *37:25 0.00042929
15 *152:A *37:33 0.000122331
16 *155:B *37:10 0.000296785
17 *155:B *37:25 2.16917e-05
18 *156:A *140:A 0.00102354
19 *166:A *37:25 0.00103414
20 *169:A *140:A 0.000119756
21 *170:A *37:25 0.000169929
22 *171:A *142:A1 0.000114492
23 *171:A *37:25 0.000144096
24 *171:A *37:33 0.000155928
25 *172:A *142:A1 0.000276279
26 *172:A *37:33 0.000147397
27 *21:8 *143:A 1.34503e-05
28 *21:8 *37:33 0.000160635
29 *29:35 *140:A 0.000392495
*RES
1 *159:X *37:10 13.555 
2 *37:10 *155:A 1.6 
3 *37:10 *37:25 17.335 
4 *37:25 *37:33 5.99 
5 *37:33 *142:A1 7.875 
6 *37:33 *140:A 13.02 
7 *37:25 *143:A 2.74 
*END

*D_NET *38 0.00514558
*CONN
*I *142:A3 I *D sky130_fd_sc_hd__o31a_1
*I *143:C I *D sky130_fd_sc_hd__or4_2
*I *141:A I *D sky130_fd_sc_hd__xnor2_1
*I *160:X O *D sky130_fd_sc_hd__buf_1
*CAP
1 *142:A3 0.000164953
2 *143:C 0
3 *141:A 0
4 *160:X 0.000485835
5 *38:25 0.00109304
6 *38:14 0.00141392
7 *142:A3 *142:B1 0.000371158
8 *38:14 *150:C 0.00011219
9 *38:25 *142:B1 1.34361e-05
10 *142:A2 *142:A3 0.000216188
11 *143:B *142:A3 9.54469e-05
12 *144:A_N *38:14 0.000342942
13 *150:D *38:14 1.01661e-05
14 *160:A *38:14 5.83121e-06
15 *161:A *38:14 0
16 *167:A *38:25 0.000599729
17 *168:A *142:A3 6.00852e-05
18 *168:A *38:25 0.000160658
*RES
1 *160:X *38:14 14.945 
2 *38:14 *141:A 1.6 
3 *38:14 *38:25 17.795 
4 *38:25 *143:C 3.6 
5 *38:25 *142:A3 9.195 
*END

*D_NET *39 0.00469123
*CONN
*I *143:D I *D sky130_fd_sc_hd__or4_2
*I *142:B1 I *D sky130_fd_sc_hd__o31a_1
*I *161:X O *D sky130_fd_sc_hd__clkbuf_1
*CAP
1 *143:D 0
2 *142:B1 0.000203339
3 *161:X 0.00124338
4 *39:16 0.00144672
5 *39:16 *151:A1 0.000353049
6 *39:16 *151:B1 0.000297372
7 *39:16 *173:A 0.000155491
8 *39:16 *40:36 0
9 out[4] *142:B1 2.16191e-05
10 *142:A3 *142:B1 0.000371158
11 *143:A *39:16 6.58339e-05
12 *152:A *39:16 3.09179e-05
13 *152:B *39:16 0.000162831
14 *23:12 *39:16 0.000316813
15 *37:25 *39:16 0
16 *37:33 *39:16 9.27255e-06
17 *38:25 *142:B1 1.34361e-05
*RES
1 *161:X *39:16 23.54 
2 *39:16 *142:B1 10.49 
3 *39:16 *143:D 1.6 
*END

*D_NET *40 0.00648394
*CONN
*I *150:A I *D sky130_fd_sc_hd__or4_1
*I *151:A1 I *D sky130_fd_sc_hd__o31ai_1
*I *147:A I *D sky130_fd_sc_hd__and2_1
*I *146:A I *D sky130_fd_sc_hd__nor2_1
*I *162:X O *D sky130_fd_sc_hd__buf_1
*CAP
1 *150:A 0.000358229
2 *151:A1 0.000206892
3 *147:A 0.000215747
4 *146:A 6.81732e-05
5 *162:X 0.000486974
6 *40:36 0.000895544
7 *40:14 0.000942965
8 *40:8 0.00147644
9 *150:A *41:25 0.000245057
10 *151:A1 *151:A2 1.85235e-05
11 *151:A1 *151:B1 0.000393029
12 *40:8 *154:A 4.66826e-05
13 *145:A *147:A 8.30487e-05
14 *145:A *40:14 0.000209233
15 *146:B *146:A 2.03321e-05
16 *147:B *147:A 0.000238137
17 *152:A *40:8 9.80032e-06
18 *157:A *40:8 9.10058e-05
19 *21:36 *151:A1 2.96334e-05
20 *23:12 *146:A 9.54399e-05
21 *23:12 *40:14 0
22 *29:16 *150:A 0
23 *29:16 *40:14 0
24 *29:16 *40:36 0
25 *39:16 *151:A1 0.000353049
26 *39:16 *40:36 0
*RES
1 *162:X *40:8 8.88 
2 *40:8 *40:14 12.455 
3 *40:14 *146:A 7.235 
4 *40:14 *147:A 5.515 
5 *40:8 *40:36 5.205 
6 *40:36 *151:A1 9.24 
7 *40:36 *150:A 10.155 
*END

*D_NET *41 0.00499612
*CONN
*I *149:A I *D sky130_fd_sc_hd__xnor2_1
*I *151:A2 I *D sky130_fd_sc_hd__o31ai_1
*I *150:B I *D sky130_fd_sc_hd__or4_1
*I *163:X O *D sky130_fd_sc_hd__buf_1
*CAP
1 *149:A 0.000201565
2 *151:A2 8.41666e-05
3 *150:B 0
4 *163:X 0.000432053
5 *41:25 0.000813206
6 *41:14 0.000959528
7 *149:A *173:A 0.000232256
8 *151:A2 *173:A 7.71016e-05
9 *41:14 *150:C 4.16158e-05
10 *41:14 *42:8 0.00027328
11 *141:B *41:14 0.000409132
12 *144:A_N *41:14 8.49205e-05
13 *145:A *41:14 0.000874944
14 *150:A *41:25 0.000245057
15 *150:D *41:14 9.54469e-05
16 *151:A1 *151:A2 1.85235e-05
17 *21:34 *151:A2 3.09164e-05
18 *25:12 *41:14 0
19 *25:12 *41:25 0.000122411
*RES
1 *163:X *41:14 19.28 
2 *41:14 *150:B 1.6 
3 *41:14 *41:25 10.745 
4 *41:25 *151:A2 5.5125 
5 *41:25 *149:A 8.295 
*END

*D_NET *42 0.00498731
*CONN
*I *150:C I *D sky130_fd_sc_hd__or4_1
*I *151:B1 I *D sky130_fd_sc_hd__o31ai_1
*I *164:X O *D sky130_fd_sc_hd__buf_1
*CAP
1 *150:C 0.000121627
2 *151:B1 0.000281952
3 *164:X 0.000504584
4 *42:8 0.000908163
5 *42:8 *154:A 0
6 *141:B *42:8 0.000410792
7 *144:A_N *42:8 0.000880354
8 *145:A *42:8 5.42303e-05
9 *150:D *150:C 0.000141599
10 *151:A1 *151:B1 0.000393029
11 *161:A *151:B1 0.000159333
12 *163:A *42:8 0
13 *21:36 *151:B1 0.000407192
14 *38:14 *150:C 0.00011219
15 *39:16 *151:B1 0.000297372
16 *41:14 *150:C 4.16158e-05
17 *41:14 *42:8 0.00027328
*RES
1 *164:X *42:8 19.005 
2 *42:8 *151:B1 12.795 
3 *42:8 *150:C 6.795 
*END

*D_NET *43 0.00176895
*CONN
*I *154:A I *D sky130_fd_sc_hd__xor2_1
*I *165:X O *D sky130_fd_sc_hd__clkbuf_1
*CAP
1 *154:A 0.000794921
2 *165:X 0.000794921
3 *152:A *154:A 4.82919e-05
4 *25:12 *154:A 2.97746e-05
5 *29:20 *154:A 5.43553e-05
6 *40:8 *154:A 4.66826e-05
7 *42:8 *154:A 0
*RES
1 *165:X *154:A 19.62 
*END

*D_NET *44 0.00358932
*CONN
*I *173:A I *D sky130_fd_sc_hd__buf_2
*I *157:X O *D sky130_fd_sc_hd__clkbuf_1
*CAP
1 *173:A 0.000877987
2 *157:X 0.000877987
3 *148:B *173:A 3.84331e-05
4 *149:A *173:A 0.000232256
5 *149:B *173:A 0
6 *151:A2 *173:A 7.71016e-05
7 *152:A *173:A 0.000203402
8 *152:B *173:A 8.40269e-05
9 *153:A *173:A 0.000123708
10 *166:A *173:A 0
11 *167:A *173:A 0.000204367
12 *169:A *173:A 0.000268292
13 *170:A *173:A 1.03833e-05
14 *21:34 *173:A 0.000435884
15 *39:16 *173:A 0.000155491
*RES
1 *157:X *173:A 28.065 
*END
